<?xml version="1.0" encoding="UTF-8"?>
<!-- generated on 2021-05-27 16:01:03.525864 by $Id$ UNKNOWN
  options: -n configs/osm.net.xml <doubleminus>trip-attributes=type="marshrutka" -e 50 <doubleminus>intermediate 3 <doubleminus>fringe-factor 10
-->
<routes xmlns:xsi="http://www.w3.org/2001/XMLSchema-instance" xsi:noNamespaceSchemaLocation="http://sumo.dlr.de/xsd/routes_file.xsd">
    <trip id="0" depart="0.00" from="423805162#0" to="4936864#1" via="-130204421#3 115664857#1 -8170973"  type="marshrutka"/>
    <trip id="1" depart="1.00" from="473272998" to="-169969776#0" via="5200605#2 -229175065#0 191552163#2"  type="marshrutka"/>
    <trip id="2" depart="2.00" from="-4949552#1" to="382238315#4" via="205343993#3 -130204421#3 -5200605#3"  type="marshrutka"/>
    <trip id="3" depart="3.00" from="23029523#2" to="-119744616" via="-8114526#2 309471080#1 4945813#4"  type="marshrutka"/>
    <trip id="4" depart="4.00" from="4945809#4" to="8114651#0" via="4899484#2 128402999#3 -4902312#5"  type="marshrutka"/>
    <trip id="5" depart="5.00" from="119744616" to="329198995" via="-22920749#1 -28823146#0 4946966#4"  type="marshrutka"/>
    <trip id="6" depart="6.00" from="4945809#5" to="130204421#4" via="492436371#2 23029523#1 904784833#0"  type="marshrutka"/>
    <trip id="7" depart="7.00" from="23029531#1" to="23444831#2" via="4946961#1 382238315#2 505464654#0"  type="marshrutka"/>
    <trip id="8" depart="8.00" from="4898206" to="-22920748#0" via="-205343293#1 -900170252 119744610#0"  type="marshrutka"/>
    <trip id="9" depart="9.00" from="-4997483#1" to="128403009#2" via="-28823146#1 11813770#1 382240872#1"  type="marshrutka"/>
    <trip id="10" depart="10.00" from="130204421#10" to="382238315#3" via="-525409132 111773043#8 8114516#0"  type="marshrutka"/>
    <trip id="11" depart="11.00" from="382238315#7" to="130204421#4" via="-4945809#6 492436371#2 -4945809#2"  type="marshrutka"/>
    <trip id="12" depart="12.00" from="928561936#0" to="4949317#2" via="382240873#0 23444831#1 466325491#2"  type="marshrutka"/>
    <trip id="13" depart="13.00" from="4936865#1" to="119512899" via="-900170252 -130204421#6 119769119#0"  type="marshrutka"/>
    <trip id="14" depart="14.00" from="-4946965" to="382238315#8" via="8114526#2 505464655#1 119769119#0"  type="marshrutka"/>
    <trip id="15" depart="15.00" from="169969776#0" to="111773043#7" via="5477494 205341672 111773043#7"  type="marshrutka"/>
    <trip id="16" depart="16.00" from="23444831#0" to="130599728" via="111773043#6 309471080#0 525409131#0"  type="marshrutka"/>
    <trip id="17" depart="17.00" from="-4949552#1" to="-205343293#2" via="945735356#0 205343995#0 -22920749#1"  type="marshrutka"/>
    <trip id="18" depart="18.00" from="-23029529#1" to="-205343995#0" via="382238315#7 4945809#6 191552163#2"  type="marshrutka"/>
    <trip id="19" depart="19.00" from="148706459#2" to="4949552#1" via="945735355#3 229175065#0 904784833#0"  type="marshrutka"/>
    <trip id="20" depart="20.00" from="-119744609#3" to="119512899" via="4902312#5 466325491#1 23029523#1"  type="marshrutka"/>
    <trip id="21" depart="21.00" from="423805162#0" to="8114650#5" via="-38351060#1 191553325#4 202012075#4"  type="marshrutka"/>
    <trip id="22" depart="22.00" from="505464655#5" to="525409131#3" via="111773043#6 205343993#1 -4946200#2"  type="marshrutka"/>
    <trip id="23" depart="23.00" from="505464655#1" to="-4902310#4" via="119744614#1 382240873#0 338067961#8"  type="marshrutka"/>
    <trip id="24" depart="24.00" from="4936859" to="-119744609#1" via="23029523#2 4945355#3 229175065#0"  type="marshrutka"/>
    <trip id="25" depart="25.00" from="119744607" to="4946965" via="-130204421#10 8114512#4 505464655#2"  type="marshrutka"/>
    <trip id="26" depart="26.00" from="115664857#0" to="-22920748#0" via="-205343990 505464655#2 8114650#3"  type="marshrutka"/>
    <trip id="27" depart="27.00" from="205343295#0" to="-38351060#0" via="-205343993#1 4945354#0 4945354#2"  type="marshrutka"/>
    <trip id="28" depart="28.00" from="205342808#2" to="187256342#0" via="23029529#0 111773043#7 505464655#0"  type="marshrutka"/>
    <trip id="29" depart="29.00" from="-4946965" to="119769119#0" via="23029523#2 492436371#2 -525409131#0"  type="marshrutka"/>
    <trip id="30" depart="30.00" from="945735355#1" to="-38351060#0" via="38351060#1 191553330 205344821#1"  type="marshrutka"/>
    <trip id="31" depart="31.00" from="-4949552#1" to="-8170973" via="128402999#2 309471080#1 -928554533#0"  type="marshrutka"/>
    <trip id="32" depart="32.00" from="-205343993#3" to="4949552#1" via="382238315#8 -900170252 525409132"  type="marshrutka"/>
    <trip id="33" depart="33.00" from="-205343993#3" to="-38351060#0" via="-928561938 423805162#1 -525409133#1"  type="marshrutka"/>
    <trip id="34" depart="34.00" from="8114512#0" to="4945812#1" via="28823146#1 205342809#0 4945809#2"  type="marshrutka"/>
    <trip id="35" depart="35.00" from="-4902312#3" to="205341672" via="-28823146#0 191553325#2 191552163#2"  type="marshrutka"/>
    <trip id="36" depart="36.00" from="4902310#3" to="148706459#2" via="4311409#0 928561936#1 -28823146#0"  type="marshrutka"/>
    <trip id="37" depart="37.00" from="119749676#2" to="191553325#2" via="505464654#0 111773043#11 -4997483#0"  type="marshrutka"/>
    <trip id="38" depart="38.00" from="191552159" to="191552163#2" via="11813770#1 111773043#11 8114512#2"  type="marshrutka"/>
    <trip id="39" depart="39.00" from="4997483#0" to="4946966#2" via="23029529#0 -205343293#2 945735356#0"  type="marshrutka"/>
    <trip id="40" depart="40.00" from="8114650#2" to="205342810#1" via="8114512#3 4949317#1 -4945809#4"  type="marshrutka"/>
    <trip id="41" depart="41.00" from="-4949552#1" to="928554533#0" via="174882387#4 -205343990 130204421#9"  type="marshrutka"/>
    <trip id="42" depart="42.00" from="-525409131#3" to="8114651#0" via="4945809#2 202012075#4 191552163#2"  type="marshrutka"/>
    <trip id="43" depart="43.00" from="945735355#1" to="119744610#1" via="23444831#1 4902312#4 -4902312#5"  type="marshrutka"/>
    <trip id="44" depart="44.00" from="8114650#2" to="-205343992#1" via="309471079#2 23029527#0 4936865#5"  type="marshrutka"/>
    <trip id="45" depart="45.00" from="309471079#3" to="8170973" via="205343993#2 4949317#2 -4902312#6"  type="marshrutka"/>
    <trip id="46" depart="46.00" from="-229175065#3" to="111773043#10" via="-4946961#1 338067961#10 450600143#6"  type="marshrutka"/>
    <trip id="47" depart="47.00" from="-329198995" to="332052796#1" via="5200605#1 111773043#10 338067961#1"  type="marshrutka"/>
    <trip id="48" depart="48.00" from="191552159" to="-8114517" via="309471079#3 205344822#1 8114514#0"  type="marshrutka"/>
    <trip id="49" depart="49.00" from="4898223" to="119744614#1" via="-928561938 174882387#1 423805162#2"  type="marshrutka"/>
</routes>
