<?xml version="1.0" encoding="UTF-8"?>

<!-- generated on Fri Aug  6 19:52:29 2021 by Eclipse SUMO duarouter Version 1.9.0
<configuration xmlns:xsi="http://www.w3.org/2001/XMLSchema-instance" xsi:noNamespaceSchemaLocation="http://sumo.dlr.de/xsd/duarouterConfiguration.xsd">

    <input>
        <net-file value="/Users/karolinabogacka/config-smaller-berlin/osm.net.xml"/>
        <route-files value="/Users/karolinabogacka/config-smaller-berlin/osm.passenger.trips.xml"/>
    </input>

    <output>
        <output-file value="/Users/karolinabogacka/config-smaller-berlin/osm.passenger.trips.xml.tmp"/>
        <write-trips value="true"/>
    </output>

    <time>
        <begin value="0"/>
        <end value="3600"/>
    </time>

    <report>
        <no-warnings value="true"/>
        <ignore-errors value="true"/>
        <no-step-log value="true"/>
    </report>

</configuration>
-->

<routes xmlns:xsi="http://www.w3.org/2001/XMLSchema-instance" xsi:noNamespaceSchemaLocation="http://sumo.dlr.de/xsd/routes_file.xsd">
    <vType id="veh_passenger" vClass="passenger"/>
    <trip id="veh0" type="veh_passenger" depart="0.00" departLane="best" departSpeed="max" from="339201219" to="-120675240#4"/>
    <trip id="veh1" type="veh_passenger" depart="4.75" departLane="best" from="-4611714#7" to="-4402014#3"/>
    <trip id="veh2" type="veh_passenger" depart="9.50" departLane="best" from="389101373#1" to="340498988#0"/>
    <trip id="veh3" type="veh_passenger" depart="14.25" departLane="best" departSpeed="max" from="533509622#0" to="-22972470#2"/>
    <trip id="veh4" type="veh_passenger" depart="19.00" departLane="best" from="15973619#5" to="-122820534#0"/>
    <trip id="veh5" type="veh_passenger" depart="23.75" departLane="best" departSpeed="max" from="-4588224#3" to="22972473#4"/>
    <trip id="veh6" type="veh_passenger" depart="28.49" departLane="best" from="-158023913#0" to="-375311153#1"/>
    <trip id="veh7" type="veh_passenger" depart="33.24" departLane="best" from="-4597325#1" to="24913304#3"/>
    <trip id="veh8" type="veh_passenger" depart="37.99" departLane="best" from="4611712" to="-111833185#0"/>
    <trip id="veh9" type="veh_passenger" depart="42.74" departLane="best" from="4611710#2" to="375311153#1"/>
    <trip id="veh10" type="veh_passenger" depart="47.49" departLane="best" from="710761407#3" to="-831860725#2"/>
    <trip id="veh11" type="veh_passenger" depart="52.24" departLane="best" from="-23121445#3" to="-23017852#1"/>
    <trip id="veh12" type="veh_passenger" depart="56.99" departLane="best" from="4611711#0" to="375459783#0"/>
    <trip id="veh13" type="veh_passenger" depart="61.74" departLane="best" from="23755950#0" to="840229276#1"/>
    <trip id="veh14" type="veh_passenger" depart="66.49" departLane="best" from="4611714#9" to="292429063"/>
    <trip id="veh15" type="veh_passenger" depart="71.24" departLane="best" from="47707170#1" to="24913304#2"/>
    <trip id="veh16" type="veh_passenger" depart="75.98" departLane="best" from="375311154#2" to="-158023913#6"/>
    <trip id="veh17" type="veh_passenger" depart="80.73" departLane="best" departSpeed="max" from="-4610480" to="-4611718#0"/>
    <trip id="veh18" type="veh_passenger" depart="85.48" departLane="best" from="-22972473#3" to="-4597325#0"/>
    <trip id="veh19" type="veh_passenger" depart="90.23" departLane="best" from="-23755950#0" to="-4611714#11"/>
    <trip id="veh20" type="veh_passenger" depart="94.98" departLane="best" departSpeed="max" from="339201219" to="110786129#1"/>
    <trip id="veh21" type="veh_passenger" depart="99.73" departLane="best" from="-4611714#11" to="710761407#1"/>
    <trip id="veh23" type="veh_passenger" depart="109.23" departLane="best" departSpeed="max" from="-335462921#4" to="111833186#2"/>
    <trip id="veh24" type="veh_passenger" depart="113.98" departLane="best" from="882389494" to="335462921#1"/>
    <trip id="veh25" type="veh_passenger" depart="118.73" departLane="best" departSpeed="max" from="24240246#0" to="35557143#1"/>
    <trip id="veh26" type="veh_passenger" depart="123.47" departLane="best" departSpeed="max" from="4611722#0" to="4588220#0"/>
    <trip id="veh27" type="veh_passenger" depart="128.22" departLane="best" from="-840229273" to="-4611711#1"/>
    <trip id="veh28" type="veh_passenger" depart="132.97" departLane="best" from="47707171#5" to="-66071366#4"/>
    <trip id="veh29" type="veh_passenger" depart="137.72" departLane="best" from="340498982#3" to="153698380#0"/>
    <trip id="veh30" type="veh_passenger" depart="142.47" departLane="best" from="-4611714#1" to="-4611693#1"/>
    <trip id="veh31" type="veh_passenger" depart="147.22" departLane="best" from="24240246#3" to="-4611710#0"/>
    <trip id="veh32" type="veh_passenger" depart="151.97" departLane="best" from="24913304#1" to="541763974"/>
    <trip id="veh33" type="veh_passenger" depart="156.72" departLane="best" from="153698413" to="-4401967#2"/>
    <trip id="veh34" type="veh_passenger" depart="161.47" departLane="best" from="930343902" to="23017852#1"/>
    <trip id="veh35" type="veh_passenger" depart="166.22" departLane="best" from="-23121445#1" to="-15973619#0"/>
    <trip id="veh36" type="veh_passenger" depart="170.96" departLane="best" from="-24242882#0" to="326116285#0"/>
    <trip id="veh37" type="veh_passenger" depart="175.71" departLane="best" from="4611699" to="15973619#13"/>
    <trip id="veh38" type="veh_passenger" depart="180.46" departLane="best" from="930343901#4" to="23755739#4"/>
    <trip id="veh39" type="veh_passenger" depart="185.21" departLane="best" from="-111833186#2" to="375312063#0"/>
    <trip id="veh40" type="veh_passenger" depart="189.96" departLane="best" from="-4611714#11" to="339201217#0"/>
    <trip id="veh41" type="veh_passenger" depart="194.71" departLane="best" from="-24242882#1" to="15973619#7"/>
    <trip id="veh42" type="veh_passenger" depart="199.46" departLane="best" from="169195795#0" to="831694400"/>
    <trip id="veh43" type="veh_passenger" depart="204.21" departLane="best" from="47707171#5" to="-4611710#0"/>
    <trip id="veh44" type="veh_passenger" depart="208.96" departLane="best" from="54781811#0" to="47707171#4"/>
    <trip id="veh45" type="veh_passenger" depart="213.71" departLane="best" from="-66071366#4" to="335462921#1"/>
    <trip id="veh46" type="veh_passenger" depart="218.45" departLane="best" from="305153173" to="-292429062#0"/>
    <trip id="veh48" type="veh_passenger" depart="227.95" departLane="best" from="4597325#2" to="23755950#0"/>
    <trip id="veh49" type="veh_passenger" depart="232.70" departLane="best" from="-109902441#0" to="-710761406#0"/>
    <trip id="veh50" type="veh_passenger" depart="237.45" departLane="best" from="-147066248#1" to="68647306#3"/>
    <trip id="veh51" type="veh_passenger" depart="242.20" departLane="best" from="47707171#7" to="4611714#10"/>
    <trip id="veh52" type="veh_passenger" depart="246.95" departLane="best" from="-710761407#2" to="-15973619#5"/>
    <trip id="veh53" type="veh_passenger" depart="251.70" departLane="best" from="47707171#7" to="8008608"/>
    <trip id="veh54" type="veh_passenger" depart="256.45" departLane="best" from="-23017852#2" to="191556835#0"/>
    <trip id="veh55" type="veh_passenger" depart="261.20" departLane="best" from="-194069450#2" to="43376693#2"/>
    <trip id="veh56" type="veh_passenger" depart="265.94" departLane="best" from="171423001#1" to="24242892#0"/>
    <trip id="veh57" type="veh_passenger" depart="270.69" departLane="best" from="-4611714#1" to="47707171#5"/>
    <trip id="veh58" type="veh_passenger" depart="275.44" departLane="best" from="23755950#2" to="375459783#0"/>
    <trip id="veh59" type="veh_passenger" depart="280.19" departLane="best" from="-4402014#2" to="-66071366#1"/>
    <trip id="veh60" type="veh_passenger" depart="284.94" departLane="best" from="930343901#3" to="340498976#10"/>
    <trip id="veh61" type="veh_passenger" depart="289.69" departLane="best" from="168515533#4" to="23121445#3"/>
    <trip id="veh62" type="veh_passenger" depart="294.44" departLane="best" from="-24509317#1" to="-4402037"/>
    <trip id="veh63" type="veh_passenger" depart="299.19" departLane="best" from="-930343901#2" to="24913304#3"/>
    <trip id="veh64" type="veh_passenger" depart="303.94" departLane="best" departSpeed="max" from="-4610480" to="-4402014#2"/>
    <trip id="veh65" type="veh_passenger" depart="308.69" departLane="best" from="-197160273#0" to="326116285#3"/>
    <trip id="veh66" type="veh_passenger" depart="313.43" departLane="best" departSpeed="max" from="-4610480" to="61584187#1"/>
    <trip id="veh67" type="veh_passenger" depart="318.18" departLane="best" departSpeed="max" from="465376240#0" to="-168935757#2"/>
    <trip id="veh68" type="veh_passenger" depart="322.93" departLane="best" from="-4611696#3" to="340498982#5"/>
    <trip id="veh69" type="veh_passenger" depart="327.68" departLane="best" departSpeed="max" from="-4588224#3" to="-243854725#2"/>
    <trip id="veh70" type="veh_passenger" depart="332.43" departLane="best" from="681299267#0" to="24913267#0"/>
    <trip id="veh71" type="veh_passenger" depart="337.18" departLane="best" from="169999355#0" to="4588224#1"/>
    <trip id="veh72" type="veh_passenger" depart="341.93" departLane="best" from="4611711#0" to="-35578576#0"/>
    <trip id="veh73" type="veh_passenger" depart="346.68" departLane="best" from="-23755739#2" to="15973619#5"/>
    <trip id="veh74" type="veh_passenger" depart="351.43" departLane="best" from="15973619#7" to="169195795#6"/>
    <trip id="veh75" type="veh_passenger" depart="356.18" departLane="best" from="375459782#1" to="340498982#9"/>
    <trip id="veh76" type="veh_passenger" depart="360.92" departLane="best" from="85255870#0" to="-23017852#2"/>
    <trip id="veh77" type="veh_passenger" depart="365.67" departLane="best" from="158023913#2" to="-840229275"/>
    <trip id="veh78" type="veh_passenger" depart="370.42" departLane="best" from="47707170#1" to="-4611693#4"/>
    <trip id="veh79" type="veh_passenger" depart="375.17" departLane="best" from="-43231842#0" to="168935757#3"/>
    <trip id="veh80" type="veh_passenger" depart="379.92" departLane="best" from="-4611708#3" to="681299267#0"/>
    <trip id="veh81" type="veh_passenger" depart="384.67" departLane="best" departSpeed="max" from="24240246#0" to="-15973619#11"/>
    <trip id="veh82" type="veh_passenger" depart="389.42" departLane="best" from="98399537#0" to="4611714#3"/>
    <trip id="veh83" type="veh_passenger" depart="394.17" departLane="best" from="82488124#1" to="68647306#1"/>
    <trip id="veh84" type="veh_passenger" depart="398.92" departLane="best" departSpeed="max" from="4611722#0" to="-320462163#2"/>
    <trip id="veh85" type="veh_passenger" depart="403.67" departLane="best" from="194069450#0" to="-43231842#3"/>
    <trip id="veh86" type="veh_passenger" depart="408.42" departLane="best" from="158023913#0" to="-15973619#5"/>
    <trip id="veh87" type="veh_passenger" depart="413.16" departLane="best" from="132600840#0" to="882389497"/>
    <trip id="veh88" type="veh_passenger" depart="417.91" departLane="best" from="-4611714#10" to="4588224#1"/>
    <trip id="veh89" type="veh_passenger" depart="422.66" departLane="best" from="169195795#0" to="15973619#13"/>
    <trip id="veh90" type="veh_passenger" depart="427.41" departLane="best" from="710761407#3" to="930343901#3"/>
    <trip id="veh91" type="veh_passenger" depart="432.16" departLane="best" departSpeed="max" from="24240246#0" to="375311158#0"/>
    <trip id="veh92" type="veh_passenger" depart="436.91" departLane="best" from="-335462874#2" to="-4773029#2"/>
    <trip id="veh93" type="veh_passenger" depart="441.66" departLane="best" from="82488124#0" to="24913304#3"/>
    <trip id="veh94" type="veh_passenger" depart="446.41" departLane="best" from="23755961#1" to="42747981#2"/>
    <trip id="veh95" type="veh_passenger" depart="451.16" departLane="best" from="-15973619#8" to="24913304#3"/>
    <trip id="veh96" type="veh_passenger" depart="455.91" departLane="best" from="22972473#4" to="465376239"/>
    <trip id="veh97" type="veh_passenger" depart="460.65" departLane="best" from="-335462916" to="831694400"/>
    <trip id="veh98" type="veh_passenger" depart="465.40" departLane="best" from="25945760#0" to="340498982#9"/>
    <trip id="veh99" type="veh_passenger" depart="470.15" departLane="best" departSpeed="max" from="533509622#0" to="-4611693#1"/>
    <trip id="veh100" type="veh_passenger" depart="474.90" departLane="best" from="25945760#0" to="292429063"/>
    <trip id="veh101" type="veh_passenger" depart="479.65" departLane="best" from="15973619#4" to="24913304#3"/>
    <trip id="veh102" type="veh_passenger" depart="484.40" departLane="best" from="23121445#3" to="710761407#0"/>
    <trip id="veh103" type="veh_passenger" depart="489.15" departLane="best" from="-4402014#3" to="375311154#7"/>
    <trip id="veh104" type="veh_passenger" depart="493.90" departLane="best" from="-4611696#3" to="153698380#0"/>
    <trip id="veh105" type="veh_passenger" depart="498.65" departLane="best" from="342968607#1" to="-47755711#1"/>
    <trip id="veh106" type="veh_passenger" depart="503.40" departLane="best" from="-840229275" to="43231842#2"/>
    <trip id="veh107" type="veh_passenger" depart="508.14" departLane="best" from="-197160273#2" to="169195795#1"/>
    <trip id="veh108" type="veh_passenger" depart="512.89" departLane="best" from="-22972470#1" to="-43231842#3"/>
    <trip id="veh109" type="veh_passenger" depart="517.64" departLane="best" from="-4611714#10" to="710761406#1"/>
    <trip id="veh110" type="veh_passenger" depart="522.39" departLane="best" from="120675240#4" to="-292429063"/>
    <trip id="veh111" type="veh_passenger" depart="527.14" departLane="best" departSpeed="max" from="4611722#0" to="375311154#1"/>
    <trip id="veh112" type="veh_passenger" depart="531.89" departLane="best" departSpeed="max" from="320462163#0" to="884209962#0"/>
    <trip id="veh113" type="veh_passenger" depart="536.64" departLane="best" from="340498982#2" to="-111833185#0"/>
    <trip id="veh114" type="veh_passenger" depart="541.39" departLane="best" from="4611714#10" to="-47755711#1"/>
    <trip id="veh115" type="veh_passenger" depart="546.14" departLane="best" from="340498982#8" to="734578686"/>
    <trip id="veh116" type="veh_passenger" depart="550.89" departLane="best" departSpeed="max" from="-25945760#1" to="-23755739#2"/>
    <trip id="veh117" type="veh_passenger" depart="555.63" departLane="best" from="-23755961#1" to="24242892#1"/>
    <trip id="veh118" type="veh_passenger" depart="560.38" departLane="best" departSpeed="max" from="339201219" to="-4611710#1"/>
    <trip id="veh119" type="veh_passenger" depart="565.13" departLane="best" from="195411604" to="61584187#1"/>
    <trip id="veh120" type="veh_passenger" depart="569.88" departLane="best" departSpeed="max" from="4611722#0" to="-22972473#4"/>
    <trip id="veh121" type="veh_passenger" depart="574.63" departLane="best" departSpeed="max" from="-110786130" to="4588219#0"/>
    <trip id="veh122" type="veh_passenger" depart="579.38" departLane="best" departSpeed="max" from="339201219" to="-4611708#4"/>
    <trip id="veh123" type="veh_passenger" depart="584.13" departLane="best" from="43231842#1" to="24242892#1"/>
    <trip id="veh125" type="veh_passenger" depart="593.63" departLane="best" from="-22972470#2" to="47755711#2"/>
    <trip id="veh126" type="veh_passenger" depart="598.38" departLane="best" from="54048862#3" to="24242882#1"/>
    <trip id="veh127" type="veh_passenger" depart="603.12" departLane="best" departSpeed="max" from="4611722#0" to="24913304#3"/>
    <trip id="veh128" type="veh_passenger" depart="607.87" departLane="best" from="-292429063" to="-24242882#0"/>
    <trip id="veh129" type="veh_passenger" depart="612.62" departLane="best" from="-710761407#2" to="541763977#1"/>
    <trip id="veh130" type="veh_passenger" depart="617.37" departLane="best" from="4611708#0" to="47707170#4"/>
    <trip id="veh131" type="veh_passenger" depart="622.12" departLane="best" from="-4611708#3" to="-23121445#0"/>
    <trip id="veh132" type="veh_passenger" depart="626.87" departLane="best" from="15971196" to="292429063"/>
    <trip id="veh133" type="veh_passenger" depart="631.62" departLane="best" from="-326116286#2" to="68647306#4"/>
    <trip id="veh134" type="veh_passenger" depart="636.37" departLane="best" from="47707170#4" to="85255869#0"/>
    <trip id="veh135" type="veh_passenger" depart="641.12" departLane="best" from="4611712" to="47755711#1"/>
    <trip id="veh136" type="veh_passenger" depart="645.87" departLane="best" from="-147066248#8" to="389101373#2"/>
    <trip id="veh137" type="veh_passenger" depart="650.61" departLane="best" departSpeed="max" from="-884209962#2" to="68647306#5"/>
    <trip id="veh138" type="veh_passenger" depart="655.36" departLane="best" from="4611708#4" to="47707170#6"/>
    <trip id="veh139" type="veh_passenger" depart="660.11" departLane="best" from="4611696#1" to="-23121445#1"/>
    <trip id="veh140" type="veh_passenger" depart="664.86" departLane="best" from="-4597325#2" to="4611708#4"/>
    <trip id="veh141" type="veh_passenger" depart="669.61" departLane="best" from="169195795#4" to="-533509622#1"/>
    <trip id="veh142" type="veh_passenger" depart="674.36" departLane="best" from="-147066248#7" to="-35578576#0"/>
    <trip id="veh143" type="veh_passenger" depart="679.11" departLane="best" from="-874528353#4" to="47707170#6"/>
    <trip id="veh144" type="veh_passenger" depart="683.86" departLane="best" from="8008608" to="-4611714#2"/>
    <trip id="veh145" type="veh_passenger" depart="688.61" departLane="best" departSpeed="max" from="339201219" to="153698402#1"/>
    <trip id="veh146" type="veh_passenger" depart="693.36" departLane="best" from="68647306#2" to="-23755739#2"/>
    <trip id="veh147" type="veh_passenger" depart="698.10" departLane="best" from="82488125#0" to="-35557143#4"/>
    <trip id="veh148" type="veh_passenger" depart="702.85" departLane="best" from="753316506" to="-4611710#2"/>
    <trip id="veh149" type="veh_passenger" depart="707.60" departLane="best" from="375459782#0" to="-66071366#2"/>
    <trip id="veh150" type="veh_passenger" depart="712.35" departLane="best" from="292429062#2" to="23017852#3"/>
    <trip id="veh151" type="veh_passenger" depart="717.10" departLane="best" from="147066248#6" to="24913304#2"/>
    <trip id="veh152" type="veh_passenger" depart="721.85" departLane="best" from="-4611710#2" to="375311154#3"/>
    <trip id="veh153" type="veh_passenger" depart="726.60" departLane="best" from="-109902441#1" to="68647306#1"/>
    <trip id="veh154" type="veh_passenger" depart="731.35" departLane="best" from="23755950#1" to="375311158#1"/>
    <trip id="veh155" type="veh_passenger" depart="736.10" departLane="best" departSpeed="max" from="120675240#0" to="-15977422#0"/>
    <trip id="veh156" type="veh_passenger" depart="740.85" departLane="best" from="340498982#8" to="-710761407#0"/>
    <trip id="veh157" type="veh_passenger" depart="745.59" departLane="best" from="-831860725#2" to="461526152#0"/>
    <trip id="veh158" type="veh_passenger" depart="750.34" departLane="best" from="375311158#1" to="-47755711#2"/>
    <trip id="veh159" type="veh_passenger" depart="755.09" departLane="best" from="-710761407#4" to="15971189"/>
    <trip id="veh160" type="veh_passenger" depart="759.84" departLane="best" from="158023913#2" to="-4773029#1"/>
    <trip id="veh161" type="veh_passenger" depart="764.59" departLane="best" from="-25945760#0" to="15973619#13"/>
    <trip id="veh162" type="veh_passenger" depart="769.34" departLane="best" from="68647306#3" to="340498988#0"/>
    <trip id="veh163" type="veh_passenger" depart="774.09" departLane="best" from="54048862#3" to="292429062#2"/>
    <trip id="veh164" type="veh_passenger" depart="778.84" departLane="best" from="-109902441#0" to="-4611714#8"/>
    <trip id="veh166" type="veh_passenger" depart="788.34" departLane="best" from="168515533#5" to="-43231842#3"/>
    <trip id="veh167" type="veh_passenger" depart="793.09" departLane="best" from="171423001#0" to="54781811#0"/>
    <trip id="veh168" type="veh_passenger" depart="797.83" departLane="best" from="4611708#0" to="-326116285#1"/>
    <trip id="veh169" type="veh_passenger" depart="802.58" departLane="best" from="-23017852#1" to="23121445#2"/>
    <trip id="veh170" type="veh_passenger" depart="807.33" departLane="best" departSpeed="max" from="339201219" to="-8008608"/>
    <trip id="veh171" type="veh_passenger" depart="812.08" departLane="best" from="4611714#11" to="43231842#1"/>
    <trip id="veh172" type="veh_passenger" depart="816.83" departLane="best" from="-4401967#2" to="-120675240#4"/>
    <trip id="veh173" type="veh_passenger" depart="821.58" departLane="best" from="-4611708#0" to="169999355#0"/>
    <trip id="veh174" type="veh_passenger" depart="826.33" departLane="best" departSpeed="max" from="4611722#0" to="-168935757#3"/>
    <trip id="veh175" type="veh_passenger" depart="831.08" departLane="best" from="15973619#11" to="326116285#2"/>
    <trip id="veh176" type="veh_passenger" depart="835.83" departLane="best" from="-43231842#3" to="375311153#0"/>
    <trip id="veh177" type="veh_passenger" depart="840.58" departLane="best" from="197160273#1" to="-4610524"/>
    <trip id="veh178" type="veh_passenger" depart="845.32" departLane="best" from="340498982#3" to="-111833185#0"/>
    <trip id="veh179" type="veh_passenger" depart="850.07" departLane="best" from="43376693#2" to="4588217"/>
    <trip id="veh180" type="veh_passenger" depart="854.82" departLane="best" from="-23755961#1" to="15973619#13"/>
    <trip id="veh181" type="veh_passenger" depart="859.57" departLane="best" from="-35557161#6" to="831694400"/>
    <trip id="veh182" type="veh_passenger" depart="864.32" departLane="best" departSpeed="max" from="23121445#0" to="-15973619#10"/>
    <trip id="veh183" type="veh_passenger" depart="869.07" departLane="best" from="-4611708#3" to="461526152#0"/>
    <trip id="veh184" type="veh_passenger" depart="873.82" departLane="best" from="340498982#9" to="884209962#0"/>
    <trip id="veh185" type="veh_passenger" depart="878.57" departLane="best" from="28251222#0" to="82488124#1"/>
    <trip id="veh186" type="veh_passenger" depart="883.32" departLane="best" departSpeed="max" from="533509622#0" to="292429062#0"/>
    <trip id="veh187" type="veh_passenger" depart="888.07" departLane="best" from="4611718#0" to="24242882#3"/>
    <trip id="veh188" type="veh_passenger" depart="892.81" departLane="best" from="54048862#0" to="42747981#2"/>
    <trip id="veh189" type="veh_passenger" depart="897.56" departLane="best" from="171423001#1" to="-4611708#2"/>
    <trip id="veh190" type="veh_passenger" depart="902.31" departLane="best" from="-4611708#2" to="335462921#1"/>
    <trip id="veh192" type="veh_passenger" depart="911.81" departLane="best" from="326116285#3" to="-4611714#1"/>
    <trip id="veh193" type="veh_passenger" depart="916.56" departLane="best" from="-22972473#2" to="-4611714#7"/>
    <trip id="veh194" type="veh_passenger" depart="921.31" departLane="best" from="-4611714#4" to="-665241888#0"/>
    <trip id="veh195" type="veh_passenger" depart="926.06" departLane="best" from="23755961#0" to="-24509317#1"/>
    <trip id="veh196" type="veh_passenger" depart="930.81" departLane="best" departSpeed="max" from="-4610480" to="35557161#5"/>
    <trip id="veh197" type="veh_passenger" depart="935.56" departLane="best" from="375311154#2" to="-15977422#0"/>
    <trip id="veh199" type="veh_passenger" depart="945.05" departLane="best" from="15973619#12" to="-389101365#2"/>
    <trip id="veh200" type="veh_passenger" depart="949.80" departLane="best" from="15973619#4" to="61584187#1"/>
    <trip id="veh201" type="veh_passenger" depart="954.55" departLane="best" from="24913304#1" to="35557161#6"/>
    <trip id="veh202" type="veh_passenger" depart="959.30" departLane="best" departSpeed="max" from="465376240#0" to="4402014#3"/>
    <trip id="veh203" type="veh_passenger" depart="964.05" departLane="best" departSpeed="max" from="111833185#0" to="43231842#3"/>
    <trip id="veh204" type="veh_passenger" depart="968.80" departLane="best" departSpeed="max" from="465376240#0" to="82488125#1"/>
    <trip id="veh205" type="veh_passenger" depart="973.55" departLane="best" from="15973619#3" to="42747981#2"/>
    <trip id="veh206" type="veh_passenger" depart="978.30" departLane="best" departSpeed="max" from="24240246#0" to="25945760#1"/>
    <trip id="veh207" type="veh_passenger" depart="983.05" departLane="best" from="-4597325#1" to="-4401967#2"/>
    <trip id="veh208" type="veh_passenger" depart="987.79" departLane="best" from="168515533#2" to="-122820534#0"/>
    <trip id="veh209" type="veh_passenger" depart="992.54" departLane="best" departSpeed="max" from="-884209962#2" to="342968607#1"/>
    <trip id="veh210" type="veh_passenger" depart="997.29" departLane="best" from="158023913#4" to="-320462163#2"/>
    <trip id="veh211" type="veh_passenger" depart="1002.04" departLane="best" from="169195795#7" to="-24242882#0"/>
    <trip id="veh212" type="veh_passenger" depart="1006.79" departLane="best" from="326116285#0" to="-122820534#0"/>
    <trip id="veh213" type="veh_passenger" depart="1011.54" departLane="best" departSpeed="max" from="153698402#0" to="243854725#4"/>
    <trip id="veh214" type="veh_passenger" depart="1016.29" departLane="best" from="-158023913#0" to="339201217#1"/>
    <trip id="veh215" type="veh_passenger" depart="1021.04" departLane="best" from="-15973619#3" to="111833186#2"/>
    <trip id="veh216" type="veh_passenger" depart="1025.79" departLane="best" from="-4588219#1" to="-710761406#0"/>
    <trip id="veh217" type="veh_passenger" depart="1030.54" departLane="best" from="4588217" to="111833186#2"/>
    <trip id="veh218" type="veh_passenger" depart="1035.28" departLane="best" from="43376693#2" to="4611714#10"/>
    <trip id="veh219" type="veh_passenger" depart="1040.03" departLane="best" from="-4611710#0" to="-194069450#2"/>
    <trip id="veh221" type="veh_passenger" depart="1049.53" departLane="best" from="98399537#0" to="-874528353#1"/>
    <trip id="veh222" type="veh_passenger" depart="1054.28" departLane="best" from="340498982#0" to="4588224#1"/>
    <trip id="veh223" type="veh_passenger" depart="1059.03" departLane="best" departSpeed="max" from="710761406#0" to="-375311158#0"/>
    <trip id="veh224" type="veh_passenger" depart="1063.78" departLane="best" from="-147066248#2" to="-292429062#0"/>
    <trip id="veh225" type="veh_passenger" depart="1068.53" departLane="best" from="-24997595#1" to="340498982#5"/>
    <trip id="veh226" type="veh_passenger" depart="1073.28" departLane="best" from="24242882#0" to="-4401967#2"/>
    <trip id="veh227" type="veh_passenger" depart="1078.03" departLane="best" from="375311154#0" to="4402037"/>
    <trip id="veh228" type="veh_passenger" depart="1082.77" departLane="best" from="-35557161#0" to="28251222#1"/>
    <trip id="veh229" type="veh_passenger" depart="1087.52" departLane="best" from="43348945#2" to="-23121445#5"/>
    <trip id="veh230" type="veh_passenger" depart="1092.27" departLane="best" from="4611714#2" to="831694400"/>
    <trip id="veh231" type="veh_passenger" depart="1097.02" departLane="best" from="-23755961#2" to="-122820534#0"/>
    <trip id="veh232" type="veh_passenger" depart="1101.77" departLane="best" from="-8008608" to="340498988#0"/>
    <trip id="veh233" type="veh_passenger" depart="1106.52" departLane="best" from="734578686" to="153698394#1"/>
    <trip id="veh234" type="veh_passenger" depart="1111.27" departLane="best" from="375311154#7" to="-168937986#3"/>
    <trip id="veh235" type="veh_passenger" depart="1116.02" departLane="best" departSpeed="max" from="35578576#0" to="326116285#0"/>
    <trip id="veh236" type="veh_passenger" depart="1120.77" departLane="best" from="-23755950#0" to="4588219#1"/>
    <trip id="veh237" type="veh_passenger" depart="1125.52" departLane="best" from="461526152#0" to="25945760#1"/>
    <trip id="veh238" type="veh_passenger" depart="1130.26" departLane="best" from="-24509317#1" to="882389494"/>
    <trip id="veh239" type="veh_passenger" depart="1135.01" departLane="best" from="4611693#0" to="-85255870#2"/>
    <trip id="veh241" type="veh_passenger" depart="1144.51" departLane="best" from="23017852#0" to="-840229277"/>
    <trip id="veh242" type="veh_passenger" depart="1149.26" departLane="best" departSpeed="max" from="4611722#0" to="4611711#0"/>
    <trip id="veh243" type="veh_passenger" depart="1154.01" departLane="best" from="-23755961#0" to="831694400"/>
    <trip id="veh244" type="veh_passenger" depart="1158.76" departLane="best" departSpeed="max" from="339201219" to="4611714#0"/>
    <trip id="veh245" type="veh_passenger" depart="1163.51" departLane="best" from="375311154#3" to="15973619#8"/>
    <trip id="veh246" type="veh_passenger" depart="1168.26" departLane="best" from="389101365#0" to="831694400"/>
    <trip id="veh247" type="veh_passenger" depart="1173.01" departLane="best" from="-4611714#3" to="4611706#0"/>
    <trip id="veh248" type="veh_passenger" depart="1177.76" departLane="best" from="23755950#1" to="188386313#2"/>
    <trip id="veh249" type="veh_passenger" depart="1182.50" departLane="best" from="168515533#2" to="375459783#1"/>
    <trip id="veh250" type="veh_passenger" depart="1187.25" departLane="best" from="-4611714#2" to="465376239"/>
    <trip id="veh251" type="veh_passenger" depart="1192.00" departLane="best" from="4611718#0" to="-22972470#2"/>
    <trip id="veh252" type="veh_passenger" depart="1196.75" departLane="best" from="169195795#6" to="292429056#3"/>
    <trip id="veh253" type="veh_passenger" depart="1201.50" departLane="best" from="132600840#0" to="-122820534#0"/>
    <trip id="veh254" type="veh_passenger" depart="1206.25" departLane="best" from="461526152#0" to="-35557161#1"/>
    <trip id="veh255" type="veh_passenger" depart="1211.00" departLane="best" from="-4588222#0" to="4611693#0"/>