<?xml version="1.0" encoding="UTF-8"?>
<!-- generated on 2021-08-06 19:52:29.561910 by $Id$ UNKNOWN
  options: 
-->
<routes xmlns:xsi="http://www.w3.org/2001/XMLSchema-instance" xsi:noNamespaceSchemaLocation="http://sumo.dlr.de/xsd/routes_file.xsd">
    <vType id="ped_pedestrian" vClass="pedestrian"/>
    <person id="ped0" depart="0.00" type="ped_pedestrian">
        <personTrip from="442389818#7" to="-153698413" modes="public"/>
    </person>
    <person id="ped1" depart="4.09" type="ped_pedestrian">
        <personTrip from="153698394#1" to="-930343901#2" modes="public"/>
    </person>
    <person id="ped2" depart="8.18" type="ped_pedestrian">
        <personTrip from="4773025" to="4611714#4" modes="public"/>
    </person>
    <person id="ped3" depart="12.27" type="ped_pedestrian">
        <personTrip from="85255870#0" to="-292429056#2" modes="public"/>
    </person>
    <person id="ped4" depart="16.36" type="ped_pedestrian">
        <personTrip from="23755961#1" to="-15973619#10" modes="public"/>
    </person>
    <person id="ped5" depart="20.45" type="ped_pedestrian">
        <personTrip from="-874528353#1" to="327730128" modes="public"/>
    </person>
    <person id="ped6" depart="24.54" type="ped_pedestrian">
        <personTrip from="-158023913#2" to="-68647306#1" modes="public"/>
    </person>
    <person id="ped7" depart="28.63" type="ped_pedestrian">
        <personTrip from="4597326" to="35557161#0" modes="public"/>
    </person>
    <person id="ped8" depart="32.72" type="ped_pedestrian">
        <personTrip from="-884209962#2" to="389101381" modes="public"/>
    </person>
    <person id="ped9" depart="36.81" type="ped_pedestrian">
        <personTrip from="665241888#1" to="-11483007#2" modes="public"/>
    </person>
    <person id="ped10" depart="40.90" type="ped_pedestrian">
        <personTrip from="66071366#1" to="463898981#0" modes="public"/>
    </person>
    <person id="ped11" depart="44.99" type="ped_pedestrian">
        <personTrip from="196850606#4" to="-4611693#4" modes="public"/>
    </person>
    <person id="ped12" depart="49.08" type="ped_pedestrian">
        <personTrip from="915958587#0" to="195089288#3" modes="public"/>
    </person>
    <person id="ped13" depart="53.17" type="ped_pedestrian">
        <personTrip from="-303084351#1" to="-32508498" modes="public"/>
    </person>
    <person id="ped14" depart="57.26" type="ped_pedestrian">
        <personTrip from="753316506" to="409506038#1" modes="public"/>
    </person>
    <person id="ped15" depart="61.35" type="ped_pedestrian">
        <personTrip from="66071366#3" to="47707171#1" modes="public"/>
    </person>
    <person id="ped16" depart="65.44" type="ped_pedestrian">
        <personTrip from="346240656#3" to="915958606#1" modes="public"/>
    </person>
    <person id="ped17" depart="69.52" type="ped_pedestrian">
        <personTrip from="199847288#0" to="371296400#0" modes="public"/>
    </person>
    <person id="ped18" depart="73.61" type="ped_pedestrian">
        <personTrip from="699041686#2" to="411611605#1" modes="public"/>
    </person>
    <person id="ped19" depart="77.70" type="ped_pedestrian">
        <personTrip from="766868098" to="378150075#0" modes="public"/>
    </person>
    <person id="ped20" depart="81.79" type="ped_pedestrian">
        <personTrip from="465626386#1" to="-195088658#0" modes="public"/>
    </person>
    <person id="ped21" depart="85.88" type="ped_pedestrian">
        <personTrip from="104567844" to="15973619#13" modes="public"/>
    </person>
    <person id="ped22" depart="89.97" type="ped_pedestrian">
        <personTrip from="-24509317#0" to="104984532" modes="public"/>
    </person>
    <person id="ped23" depart="94.06" type="ped_pedestrian">
        <personTrip from="-327730128" to="158023913#0" modes="public"/>
    </person>
    <person id="ped24" depart="98.15" type="ped_pedestrian">
        <personTrip from="442389818#1" to="197160273#1" modes="public"/>
    </person>
    <person id="ped25" depart="102.24" type="ped_pedestrian">
        <personTrip from="199847265" to="-8008608" modes="public"/>
    </person>
    <person id="ped26" depart="106.33" type="ped_pedestrian">
        <personTrip from="147066248#6" to="883691541#3" modes="public"/>
    </person>
    <person id="ped27" depart="110.42" type="ped_pedestrian">
        <personTrip from="4597325#0" to="410310755#6" modes="public"/>
    </person>
    <person id="ped28" depart="114.51" type="ped_pedestrian">
        <personTrip from="-4611714#11" to="47707171#1" modes="public"/>
    </person>
    <person id="ped29" depart="118.60" type="ped_pedestrian">
        <personTrip from="-4611710#0" to="199847288#2" modes="public"/>
    </person>
    <person id="ped30" depart="122.69" type="ped_pedestrian">
        <personTrip from="915958622#3" to="456400035" modes="public"/>
    </person>
    <person id="ped31" depart="126.78" type="ped_pedestrian">
        <personTrip from="373292157#2" to="461526152#0" modes="public"/>
    </person>
    <person id="ped32" depart="130.87" type="ped_pedestrian">
        <personTrip from="744493888" to="54781811#0" modes="public"/>
    </person>
    <person id="ped33" depart="134.96" type="ped_pedestrian">
        <personTrip from="104581979#0" to="-15973619#13" modes="public"/>
    </person>
    <person id="ped34" depart="139.05" type="ped_pedestrian">
        <personTrip from="171494871#1" to="147066248#7" modes="public"/>
    </person>
    <person id="ped35" depart="143.14" type="ped_pedestrian">
        <personTrip from="-803471192#1" to="884209966#0" modes="public"/>
    </person>
    <person id="ped36" depart="147.23" type="ped_pedestrian">
        <personTrip from="803471192#1" to="171423002#6" modes="public"/>
    </person>
    <person id="ped37" depart="151.32" type="ped_pedestrian">
        <personTrip from="4610600" to="22972195#2" modes="public"/>
    </person>
    <person id="ped38" depart="155.41" type="ped_pedestrian">
        <personTrip from="882389481" to="303084356" modes="public"/>
    </person>
    <person id="ped39" depart="159.50" type="ped_pedestrian">
        <personTrip from="147066248#3" to="121717657#3" modes="public"/>
    </person>
    <person id="ped40" depart="163.59" type="ped_pedestrian">
        <personTrip from="375311153#0" to="147066248#0" modes="public"/>
    </person>
    <person id="ped41" depart="167.68" type="ped_pedestrian">
        <personTrip from="389101373#1" to="868590783" modes="public"/>
    </person>
    <person id="ped42" depart="171.77" type="ped_pedestrian">
        <personTrip from="22972473#4" to="-874528353#4" modes="public"/>
    </person>
    <person id="ped43" depart="175.86" type="ped_pedestrian">
        <personTrip from="945425792" to="327941679#0" modes="public"/>
    </person>
    <person id="ped44" depart="179.95" type="ped_pedestrian">
        <personTrip from="-292429063" to="-195088659#0" modes="public"/>
    </person>
    <person id="ped45" depart="184.04" type="ped_pedestrian">
        <personTrip from="-340498976#10" to="43348945#2" modes="public"/>
    </person>
    <person id="ped46" depart="188.13" type="ped_pedestrian">
        <personTrip from="596826981#1" to="23755961#1" modes="public"/>
    </person>
    <person id="ped47" depart="192.22" type="ped_pedestrian">
        <personTrip from="-23121445#1" to="202157027#2" modes="public"/>
    </person>
    <person id="ped48" depart="196.31" type="ped_pedestrian">
        <personTrip from="942234135" to="340498982#9" modes="public"/>
    </person>
    <person id="ped49" depart="200.39" type="ped_pedestrian">
        <personTrip from="915958605#2" to="766868097" modes="public"/>
    </person>
    <person id="ped50" depart="204.48" type="ped_pedestrian">
        <personTrip from="-132460632#0" to="47423542#4" modes="public"/>
    </person>
    <person id="ped51" depart="208.57" type="ped_pedestrian">
        <personTrip from="4611716#1" to="346240656#4" modes="public"/>
    </person>
    <person id="ped52" depart="212.66" type="ped_pedestrian">
        <personTrip from="147066248#6" to="456400037#0" modes="public"/>
    </person>
    <person id="ped53" depart="216.75" type="ped_pedestrian">
        <personTrip from="-340498976#6" to="24509317#1" modes="public"/>
    </person>
    <person id="ped54" depart="220.84" type="ped_pedestrian">
        <personTrip from="292429062#1" to="899946808" modes="public"/>
    </person>
    <person id="ped55" depart="224.93" type="ped_pedestrian">
        <personTrip from="803471192#0" to="147066248#1" modes="public"/>
    </person>
    <person id="ped56" depart="229.02" type="ped_pedestrian">
        <personTrip from="327519012#1" to="-474362271" modes="public"/>
    </person>
    <person id="ped57" depart="233.11" type="ped_pedestrian">
        <personTrip from="881611350" to="803471185" modes="public"/>
    </person>
    <person id="ped58" depart="237.20" type="ped_pedestrian">
        <personTrip from="168935757#0" to="442389818#6" modes="public"/>
    </person>
    <person id="ped59" depart="241.29" type="ped_pedestrian">
        <personTrip from="410310755#4" to="-4610527" modes="public"/>
    </person>
    <person id="ped60" depart="245.38" type="ped_pedestrian">
        <personTrip from="526093508#2" to="346240659" modes="public"/>
    </person>
    <person id="ped61" depart="249.47" type="ped_pedestrian">
        <personTrip from="55494203" to="342968607#1" modes="public"/>
    </person>
    <person id="ped62" depart="253.56" type="ped_pedestrian">
        <personTrip from="-105747086" to="188386313#1" modes="public"/>
    </person>
    <person id="ped63" depart="257.65" type="ped_pedestrian">
        <personTrip from="-147066248#6" to="882389498" modes="public"/>
    </person>
    <person id="ped64" depart="261.74" type="ped_pedestrian">
        <personTrip from="803471195#1" to="699041690" modes="public"/>
    </person>
    <person id="ped65" depart="265.83" type="ped_pedestrian">
        <personTrip from="169999355#0" to="-22972473#4" modes="public"/>
    </person>
    <person id="ped66" depart="269.92" type="ped_pedestrian">
        <personTrip from="803471194#2" to="884209967#3" modes="public"/>
    </person>
    <person id="ped67" depart="274.01" type="ped_pedestrian">
        <personTrip from="-28251222#1" to="317859982#3" modes="public"/>
    </person>
    <person id="ped68" depart="278.10" type="ped_pedestrian">
        <personTrip from="-23755739#4" to="519273957" modes="public"/>
    </person>
    <person id="ped69" depart="282.19" type="ped_pedestrian">
        <personTrip from="54048862#1" to="-389101385" modes="public"/>
    </person>
    <person id="ped70" depart="286.28" type="ped_pedestrian">
        <personTrip from="303084360#4" to="35578576#0" modes="public"/>
    </person>
    <person id="ped71" depart="290.37" type="ped_pedestrian">
        <personTrip from="147066248#3" to="803471188#0" modes="public"/>
    </person>
    <person id="ped72" depart="294.46" type="ped_pedestrian">
        <personTrip from="23755961#2" to="-831860725#2" modes="public"/>
    </person>
    <person id="ped73" depart="298.55" type="ped_pedestrian">
        <personTrip from="346240659" to="47707171#2" modes="public"/>
    </person>
    <person id="ped74" depart="302.64" type="ped_pedestrian">
        <personTrip from="-68647306#5" to="171423002#2" modes="public"/>
    </person>
    <person id="ped75" depart="306.73" type="ped_pedestrian">
        <personTrip from="942234133#0" to="4597326" modes="public"/>
    </person>
    <person id="ped76" depart="310.82" type="ped_pedestrian">
        <personTrip from="24913304#1" to="335462921#1" modes="public"/>
    </person>
    <person id="ped77" depart="314.91" type="ped_pedestrian">
        <personTrip from="-375311158#2" to="-930343901#4" modes="public"/>
    </person>
    <person id="ped78" depart="319.00" type="ped_pedestrian">
        <personTrip from="195411604" to="389101379" modes="public"/>
    </person>
    <person id="ped79" depart="323.09" type="ped_pedestrian">
        <personTrip from="104786912#0" to="-884209962#2" modes="public"/>
    </person>
    <person id="ped80" depart="327.18" type="ped_pedestrian">
        <personTrip from="-23755950#4" to="437502564" modes="public"/>
    </person>
    <person id="ped81" depart="331.27" type="ped_pedestrian">
        <personTrip from="104581979#0" to="881245043#3" modes="public"/>
    </person>
    <person id="ped82" depart="335.35" type="ped_pedestrian">
        <personTrip from="766868095#1" to="-23755950#4" modes="public"/>
    </person>
    <person id="ped83" depart="339.44" type="ped_pedestrian">
        <personTrip from="111833185#1" to="4611711#0" modes="public"/>
    </person>
    <person id="ped84" depart="343.53" type="ped_pedestrian">
        <personTrip from="-840229276#0" to="-409507435#0" modes="public"/>
    </person>
    <person id="ped85" depart="347.62" type="ped_pedestrian">
        <personTrip from="883691541#1" to="375459782#1" modes="public"/>
    </person>
    <person id="ped86" depart="351.71" type="ped_pedestrian">
        <personTrip from="303084360#1" to="596826976#0" modes="public"/>
    </person>
    <person id="ped87" depart="355.80" type="ped_pedestrian">
        <personTrip from="66071370" to="-622088436" modes="public"/>
    </person>
    <person id="ped88" depart="359.89" type="ped_pedestrian">
        <personTrip from="-32508498" to="24242892#1" modes="public"/>
    </person>
    <person id="ped89" depart="363.98" type="ped_pedestrian">
        <personTrip from="239922344" to="303084359#2" modes="public"/>
    </person>
    <person id="ped90" depart="368.07" type="ped_pedestrian">
        <personTrip from="47707171#0" to="4611714#1" modes="public"/>
    </person>
    <person id="ped91" depart="372.16" type="ped_pedestrian">
        <personTrip from="915958620#1" to="-32508518" modes="public"/>
    </person>
    <person id="ped92" depart="376.25" type="ped_pedestrian">
        <personTrip from="23017852#3" to="196850606#1" modes="public"/>
    </person>
    <person id="ped93" depart="380.34" type="ped_pedestrian">
        <personTrip from="766868098" to="122820536" modes="public"/>
    </person>
    <person id="ped94" depart="384.43" type="ped_pedestrian">
        <personTrip from="-622088436" to="28120501#2" modes="public"/>
    </person>
    <person id="ped95" depart="388.52" type="ped_pedestrian">
        <personTrip from="23755961#1" to="158023913#2" modes="public"/>
    </person>
    <person id="ped96" depart="392.61" type="ped_pedestrian">
        <personTrip from="132460631#0" to="882389495" modes="public"/>
    </person>
    <person id="ped97" depart="396.70" type="ped_pedestrian">
        <personTrip from="260425593" to="766868097" modes="public"/>
    </person>
    <person id="ped98" depart="400.79" type="ped_pedestrian">
        <personTrip from="36997008" to="-195089288#2" modes="public"/>
    </person>
    <person id="ped99" depart="404.88" type="ped_pedestrian">
        <personTrip from="964267490" to="710761406#1" modes="public"/>
    </person>
    <person id="ped100" depart="408.97" type="ped_pedestrian">
        <personTrip from="915958602#2" to="882389496#3" modes="public"/>
    </person>
    <person id="ped101" depart="413.06" type="ped_pedestrian">
        <personTrip from="766868084" to="-4611711#1" modes="public"/>
    </person>
    <person id="ped102" depart="417.15" type="ped_pedestrian">
        <personTrip from="317859982#3" to="-840229275" modes="public"/>
    </person>
    <person id="ped103" depart="421.24" type="ped_pedestrian">
        <personTrip from="23017852#0" to="-22972473#5" modes="public"/>
    </person>
    <person id="ped104" depart="425.33" type="ped_pedestrian">
        <personTrip from="199847288#1" to="915958620#3" modes="public"/>
    </person>
    <person id="ped105" depart="429.42" type="ped_pedestrian">
        <personTrip from="147066248#3" to="596826976#0" modes="public"/>
    </person>
    <person id="ped106" depart="433.51" type="ped_pedestrian">
        <personTrip from="292429062#3" to="23755961#2" modes="public"/>
    </person>
    <person id="ped107" depart="437.60" type="ped_pedestrian">
        <personTrip from="915958587#0" to="942234133#1" modes="public"/>
    </person>
    <person id="ped108" depart="441.69" type="ped_pedestrian">
        <personTrip from="373292157#0" to="47423542#1" modes="public"/>
    </person>
    <person id="ped109" depart="445.78" type="ped_pedestrian">
        <personTrip from="-4611693#1" to="168515533#4" modes="public"/>
    </person>
    <person id="ped110" depart="449.87" type="ped_pedestrian">
        <personTrip from="915958602#2" to="378153327" modes="public"/>
    </person>
    <person id="ped111" depart="453.96" type="ped_pedestrian">
        <personTrip from="346240666#2" to="482327909" modes="public"/>
    </person>
    <person id="ped112" depart="458.05" type="ped_pedestrian">
        <personTrip from="-22972473#3" to="389101365#3" modes="public"/>
    </person>
    <person id="ped113" depart="462.14" type="ped_pedestrian">
        <personTrip from="327519012#5" to="766868087#2" modes="public"/>
    </person>
    <person id="ped114" depart="466.22" type="ped_pedestrian">
        <personTrip from="-4611696#4" to="915958590#2" modes="public"/>
    </person>
    <person id="ped115" depart="470.31" type="ped_pedestrian">
        <personTrip from="-24509317#0" to="-546927052" modes="public"/>
    </person>
    <person id="ped116" depart="474.40" type="ped_pedestrian">
        <personTrip from="389101393#0" to="4611714#2" modes="public"/>
    </person>
    <person id="ped117" depart="478.49" type="ped_pedestrian">
        <personTrip from="110670639#0" to="-375311153#1" modes="public"/>
    </person>
    <person id="ped118" depart="482.58" type="ped_pedestrian">
        <personTrip from="841787930" to="121717657#2" modes="public"/>
    </person>
    <person id="ped119" depart="486.67" type="ped_pedestrian">
        <personTrip from="389101392" to="416174754" modes="public"/>
    </person>
    <person id="ped120" depart="490.76" type="ped_pedestrian">
        <personTrip from="23755950#0" to="389101365#0" modes="public"/>
    </person>
    <person id="ped121" depart="494.85" type="ped_pedestrian">
        <personTrip from="340498976#3" to="883691541#0" modes="public"/>
    </person>
    <person id="ped122" depart="498.94" type="ped_pedestrian">
        <personTrip from="-710761407#2" to="47423541#0" modes="public"/>
    </person>
    <person id="ped123" depart="503.03" type="ped_pedestrian">
        <personTrip from="111833186#0" to="22972470#1" modes="public"/>
    </person>
    <person id="ped124" depart="507.12" type="ped_pedestrian">
        <personTrip from="4611713#1" to="168937986#1" modes="public"/>
    </person>
    <person id="ped125" depart="511.21" type="ped_pedestrian">
        <personTrip from="171494871#2" to="482809615" modes="public"/>
    </person>
    <person id="ped126" depart="515.30" type="ped_pedestrian">
        <personTrip from="-23755961#1" to="303084354" modes="public"/>
    </person>
    <person id="ped127" depart="519.39" type="ped_pedestrian">
        <personTrip from="949362586" to="942234135" modes="public"/>
    </person>
    <person id="ped128" depart="523.48" type="ped_pedestrian">
        <personTrip from="-23755961#2" to="-840229273" modes="public"/>
    </person>
    <person id="ped129" depart="527.57" type="ped_pedestrian">
        <personTrip from="147066248#3" to="882389500" modes="public"/>
    </person>
    <person id="ped130" depart="531.66" type="ped_pedestrian">
        <personTrip from="812557617" to="803471195#1" modes="public"/>
    </person>
    <person id="ped131" depart="535.75" type="ped_pedestrian">
        <personTrip from="199847263" to="-4611696#4" modes="public"/>
    </person>
    <person id="ped132" depart="539.84" type="ped_pedestrian">
        <personTrip from="699041692#2" to="465376242" modes="public"/>
    </person>
    <person id="ped133" depart="543.93" type="ped_pedestrian">
        <personTrip from="411610104" to="915958622#0" modes="public"/>
    </person>
    <person id="ped134" depart="548.02" type="ped_pedestrian">
        <personTrip from="4610526" to="-120675240#3" modes="public"/>
    </person>
    <person id="ped135" depart="552.11" type="ped_pedestrian">
        <personTrip from="688445661" to="168935757#3" modes="public"/>
    </person>
    <person id="ped136" depart="556.20" type="ped_pedestrian">
        <personTrip from="4611708#0" to="884209959" modes="public"/>
    </person>
    <person id="ped137" depart="560.29" type="ped_pedestrian">
        <personTrip from="-410310755#4" to="-35557161#3" modes="public"/>
    </person>
    <person id="ped138" depart="564.38" type="ped_pedestrian">
        <personTrip from="-335462916" to="373292148#0" modes="public"/>
    </person>
    <person id="ped139" depart="568.47" type="ped_pedestrian">
        <personTrip from="148870943" to="409507435#1" modes="public"/>
    </person>
    <person id="ped140" depart="572.56" type="ped_pedestrian">
        <personTrip from="47423542#0" to="-710761407#0" modes="public"/>
    </person>
    <person id="ped141" depart="576.65" type="ped_pedestrian">
        <personTrip from="4402037" to="147066248#1" modes="public"/>
    </person>
    <person id="ped142" depart="580.74" type="ped_pedestrian">
        <personTrip from="32508516#0" to="881245043#2" modes="public"/>
    </person>
    <person id="ped143" depart="584.83" type="ped_pedestrian">
        <personTrip from="751602168" to="-303084351#0" modes="public"/>
    </person>
    <person id="ped144" depart="588.92" type="ped_pedestrian">
        <personTrip from="239922344" to="153698402#1" modes="public"/>
    </person>
    <person id="ped145" depart="593.01" type="ped_pedestrian">
        <personTrip from="-111833186#0" to="541320663" modes="public"/>
    </person>
    <person id="ped146" depart="597.10" type="ped_pedestrian">
        <personTrip from="442389818#3" to="147029850#0" modes="public"/>
    </person>
    <person id="ped147" depart="601.18" type="ped_pedestrian">
        <personTrip from="4773029#1" to="371296400#0" modes="public"/>
    </person>
    <person id="ped148" depart="605.27" type="ped_pedestrian">
        <personTrip from="24242882#0" to="-132460631#0" modes="public"/>
    </person>
    <person id="ped149" depart="609.36" type="ped_pedestrian">
        <personTrip from="-24242882#2" to="82488124#1" modes="public"/>
    </person>
    <person id="ped150" depart="613.45" type="ped_pedestrian">
        <personTrip from="881245043#0" to="35557161#1" modes="public"/>
    </person>
    <person id="ped151" depart="617.54" type="ped_pedestrian">
        <personTrip from="699041693" to="387106268" modes="public"/>
    </person>
    <person id="ped152" depart="621.63" type="ped_pedestrian">
        <personTrip from="-4597325#0" to="-389101365#2" modes="public"/>
    </person>
    <person id="ped153" depart="625.72" type="ped_pedestrian">
        <personTrip from="171423001#0" to="874528353#0" modes="public"/>
    </person>
    <person id="ped154" depart="629.81" type="ped_pedestrian">
        <personTrip from="605375729#0" to="766868095#2" modes="public"/>
    </person>
    <person id="ped155" depart="633.90" type="ped_pedestrian">
        <personTrip from="874528353#0" to="-803471192#0" modes="public"/>
    </person>
    <person id="ped156" depart="637.99" type="ped_pedestrian">
        <personTrip from="132460630" to="-327735417" modes="public"/>
    </person>
    <person id="ped157" depart="642.08" type="ped_pedestrian">
        <personTrip from="561816967" to="82488125#1" modes="public"/>
    </person>
    <person id="ped158" depart="646.17" type="ped_pedestrian">
        <personTrip from="23121445#3" to="42102542#0" modes="public"/>
    </person>
    <person id="ped159" depart="650.26" type="ped_pedestrian">
        <personTrip from="-4611693#1" to="882389499#0" modes="public"/>
    </person>
    <person id="ped160" depart="654.35" type="ped_pedestrian">
        <personTrip from="774607081" to="915958612#1" modes="public"/>
    </person>
    <person id="ped161" depart="658.44" type="ped_pedestrian">
        <personTrip from="666482961" to="823315831" modes="public"/>
    </person>
    <person id="ped162" depart="662.53" type="ped_pedestrian">
        <personTrip from="-153698413" to="4773025" modes="public"/>
    </person>
    <person id="ped163" depart="666.62" type="ped_pedestrian">
        <personTrip from="195088844" to="882389499#2" modes="public"/>
    </person>
    <person id="ped164" depart="670.71" type="ped_pedestrian">
        <personTrip from="622088435" to="766906816" modes="public"/>
    </person>
    <person id="ped165" depart="674.80" type="ped_pedestrian">
        <personTrip from="666482961" to="147066248#6" modes="public"/>
    </person>
    <person id="ped166" depart="678.89" type="ped_pedestrian">
        <personTrip from="596826980#0" to="-335462921#4" modes="public"/>
    </person>
    <person id="ped167" depart="682.98" type="ped_pedestrian">
        <personTrip from="803471187" to="766868092#1" modes="public"/>
    </person>
    <person id="ped168" depart="687.07" type="ped_pedestrian">
        <personTrip from="-899946801#0" to="68647306#6" modes="public"/>
    </person>
    <person id="ped169" depart="691.16" type="ped_pedestrian">
        <personTrip from="303084358#0" to="169195795#5" modes="public"/>
    </person>
    <person id="ped170" depart="695.25" type="ped_pedestrian">
        <personTrip from="596826985#2" to="104428005" modes="public"/>
    </person>
    <person id="ped171" depart="699.34" type="ped_pedestrian">
        <personTrip from="-153698402#0" to="-66071366#4" modes="public"/>
    </person>
    <person id="ped172" depart="703.43" type="ped_pedestrian">
        <personTrip from="194069450#0" to="774607081" modes="public"/>
    </person>
    <person id="ped173" depart="707.52" type="ped_pedestrian">
        <personTrip from="915958601#1" to="158023913#2" modes="public"/>
    </person>
    <person id="ped174" depart="711.61" type="ped_pedestrian">
        <personTrip from="456400037#1" to="22972473#4" modes="public"/>
    </person>
    <person id="ped175" depart="715.70" type="ped_pedestrian">
        <personTrip from="915958617" to="346240656#3" modes="public"/>
    </person>
    <person id="ped176" depart="719.79" type="ped_pedestrian">
        <personTrip from="884209962#0" to="-35557161#3" modes="public"/>
    </person>
    <person id="ped177" depart="723.88" type="ped_pedestrian">
        <personTrip from="915958605#1" to="-474362271" modes="public"/>
    </person>
    <person id="ped178" depart="727.97" type="ped_pedestrian">
        <personTrip from="915958595" to="147066248#4" modes="public"/>
    </person>
    <person id="ped179" depart="732.06" type="ped_pedestrian">
        <personTrip from="-340498976#0" to="24509317#1" modes="public"/>
    </person>
    <person id="ped180" depart="736.14" type="ped_pedestrian">
        <personTrip from="47707171#0" to="171423002#5" modes="public"/>
    </person>
    <person id="ped181" depart="740.23" type="ped_pedestrian">
        <personTrip from="409507437" to="330840131" modes="public"/>
    </person>
    <person id="ped182" depart="744.32" type="ped_pedestrian">
        <personTrip from="202157030" to="378150074#1" modes="public"/>
    </person>
    <person id="ped183" depart="748.41" type="ped_pedestrian">
        <personTrip from="132600840#1" to="465626394#0" modes="public"/>
    </person>
    <person id="ped184" depart="752.50" type="ped_pedestrian">
        <personTrip from="-109902441#1" to="882389496#2" modes="public"/>
    </person>
    <person id="ped185" depart="756.59" type="ped_pedestrian">
        <personTrip from="346240658#1" to="47423542#2" modes="public"/>
    </person>
    <person id="ped186" depart="760.68" type="ped_pedestrian">
        <personTrip from="4773029#2" to="4611712" modes="public"/>
    </person>
    <person id="ped187" depart="764.77" type="ped_pedestrian">
        <personTrip from="197160273#1" to="-23755950#1" modes="public"/>
    </person>
    <person id="ped188" depart="768.86" type="ped_pedestrian">
        <personTrip from="4611708#1" to="195088658#1" modes="public"/>
    </person>
    <person id="ped189" depart="772.95" type="ped_pedestrian">
        <personTrip from="171423002#5" to="765170630" modes="public"/>
    </person>
    <person id="ped190" depart="777.04" type="ped_pedestrian">
        <personTrip from="47423542#3" to="168937986#1" modes="public"/>
    </person>
    <person id="ped191" depart="781.13" type="ped_pedestrian">
        <personTrip from="171423001#1" to="231716554" modes="public"/>
    </person>
    <person id="ped192" depart="785.22" type="ped_pedestrian">
        <personTrip from="23017852#2" to="168515533#2" modes="public"/>
    </person>
    <person id="ped193" depart="789.31" type="ped_pedestrian">
        <personTrip from="-389101365#2" to="23755950#2" modes="public"/>
    </person>
    <person id="ped194" depart="793.40" type="ped_pedestrian">
        <personTrip from="884209964" to="4611714#5" modes="public"/>
    </person>
    <person id="ped195" depart="797.49" type="ped_pedestrian">
        <personTrip from="881245042" to="411610105#5" modes="public"/>
    </person>
    <person id="ped196" depart="801.58" type="ped_pedestrian">
        <personTrip from="168937986#3" to="35557161#4" modes="public"/>
    </person>
    <person id="ped197" depart="805.67" type="ped_pedestrian">
        <personTrip from="-105747086" to="15973619#10" modes="public"/>
    </person>
    <person id="ped198" depart="809.76" type="ped_pedestrian">
        <personTrip from="24242882#3" to="38211708#0" modes="public"/>
    </person>
    <person id="ped199" depart="813.85" type="ped_pedestrian">
        <personTrip from="4610527" to="303084359#10" modes="public"/>
    </person>
    <person id="ped200" depart="817.94" type="ped_pedestrian">