<?xml version="1.0" encoding="UTF-8"?>

<!-- generated on Fri Aug  6 19:52:26 2021 by Eclipse SUMO polyconvert Version 1.9.0
<configuration xmlns:xsi="http://www.w3.org/2001/XMLSchema-instance" xsi:noNamespaceSchemaLocation="http://sumo.dlr.de/xsd/polyconvertConfiguration.xsd">

    <input>
        <net-file value="osm.net.xml"/>
        <osm-files value="osm_bbox.osm.xml"/>
        <osm.keep-full-type value="true"/>
        <type-file value="/usr/local/opt/sumo/share/sumo/data/typemap/osmPolyconvert.typ.xml"/>
    </input>

    <output>
        <output-file value="osm.poly.xml"/>
    </output>

    <processing>
        <poi-layer-offset value="5"/>
    </processing>

    <report>
        <verbose value="true"/>
    </report>

</configuration>
-->

<additional xmlns:xsi="http://www.w3.org/2001/XMLSchema-instance" xsi:noNamespaceSchemaLocation="http://sumo.dlr.de/xsd/additional_file.xsd">
    <location netOffset="-389769.03,-5818514.03" convBoundary="-780.86,-3133.17,5514.68,4745.16" origBoundary="13.365446,52.477280,13.456601,52.548335" projParameter="+proj=utm +zone=33 +ellps=WGS84 +datum=WGS84 +units=m +no_defs"/>

    <poly id="104786904" type="natural.grassland" color="140,196,107" fill="1" layer="-4.00" shape="1239.587685,1453.248625 1244.924925,1391.404815 1225.528166,1389.744473 1220.184382,1451.588459 1239.587685,1453.248625"/>
    <poly id="104786916" type="building.yes" color="255,230,230" fill="1" layer="-1.00" shape="1386.071704,1491.630628 1381.231520,1508.718969 1419.312191,1519.723699 1424.113125,1505.752009 1421.447959,1504.642818 1418.893661,1502.718849 1416.191447,1500.553359 1412.491664,1499.010928 1398.180964,1494.966881 1386.071704,1491.630628"/>
    <poly id="105187864" type="building.yes" color="255,230,230" fill="1" layer="-1.00" shape="748.707860,1504.590566 743.166193,1504.169192 737.780074,1503.722091 735.794234,1503.555062 733.985291,1503.406333 731.326279,1503.187590 732.005161,1494.993562 732.927902,1483.133074 723.030091,1482.185965 721.974168,1494.160710 721.396357,1501.106179 720.868171,1507.538665 720.440294,1512.689223 720.316826,1514.149711 720.048472,1517.327103 719.888454,1519.278026 719.722398,1521.262467 719.238189,1526.625712 729.739245,1527.537068 730.168194,1522.130550 730.318127,1520.335640 730.510402,1518.005654 730.756349,1515.040191 730.923653,1513.111360 732.569264,1513.241484 734.657119,1513.417359 736.778897,1513.592476 742.341654,1514.046754 747.900680,1514.334207 748.707860,1504.590566"/>
    <poly id="105187864#1" type="landuse.commercial" color="209,209,204" fill="1" layer="-3.00" shape="748.707860,1504.590566 743.166193,1504.169192 737.780074,1503.722091 735.794234,1503.555062 733.985291,1503.406333 731.326279,1503.187590 732.005161,1494.993562 732.927902,1483.133074 723.030091,1482.185965 721.974168,1494.160710 721.396357,1501.106179 720.868171,1507.538665 720.440294,1512.689223 720.316826,1514.149711 720.048472,1517.327103 719.888454,1519.278026 719.722398,1521.262467 719.238189,1526.625712 729.739245,1527.537068 730.168194,1522.130550 730.318127,1520.335640 730.510402,1518.005654 730.756349,1515.040191 730.923653,1513.111360 732.569264,1513.241484 734.657119,1513.417359 736.778897,1513.592476 742.341654,1514.046754 747.900680,1514.334207 748.707860,1504.590566"/>
    <poly id="105187865" type="building.office" color="255,230,230" fill="1" layer="-1.00" shape="778.311677,1438.731798 876.730463,1446.236692 875.520748,1457.725206 869.660158,1513.550078 867.696774,1535.059207 865.722079,1556.668739 727.983420,1545.247093 717.836941,1544.405708 681.916162,1541.425640 688.966095,1464.820722 724.332147,1467.557327 723.593949,1475.830576 698.480159,1473.799410 696.384713,1499.083872 721.396357,1501.106179 720.868171,1507.538665 720.440294,1512.689223 698.510357,1510.965215 696.418986,1536.127184 718.303061,1537.930098 719.238189,1526.625712 729.739245,1527.537068 728.779014,1538.630586 744.249028,1539.853729 745.369784,1525.919067 756.475161,1526.839225 756.907372,1521.577297 778.920884,1523.399845 778.118446,1533.054352 842.002556,1538.325926 846.229168,1487.467061 857.103181,1488.359234 858.216341,1474.981164 808.565089,1470.882453 809.485062,1459.800986 794.761883,1458.594325 792.691653,1483.510951 774.717760,1482.032032 777.531384,1448.163254 778.311677,1438.731798"/>
    <poly id="105187865#1" type="landuse.commercial" color="209,209,204" fill="1" layer="-3.00" shape="778.311677,1438.731798 876.730463,1446.236692 875.520748,1457.725206 869.660158,1513.550078 867.696774,1535.059207 865.722079,1556.668739 727.983420,1545.247093 717.836941,1544.405708 681.916162,1541.425640 688.966095,1464.820722 724.332147,1467.557327 723.593949,1475.830576 698.480159,1473.799410 696.384713,1499.083872 721.396357,1501.106179 720.868171,1507.538665 720.440294,1512.689223 698.510357,1510.965215 696.418986,1536.127184 718.303061,1537.930098 719.238189,1526.625712 729.739245,1527.537068 728.779014,1538.630586 744.249028,1539.853729 745.369784,1525.919067 756.475161,1526.839225 756.907372,1521.577297 778.920884,1523.399845 778.118446,1533.054352 842.002556,1538.325926 846.229168,1487.467061 857.103181,1488.359234 858.216341,1474.981164 808.565089,1470.882453 809.485062,1459.800986 794.761883,1458.594325 792.691653,1483.510951 774.717760,1482.032032 777.531384,1448.163254 778.311677,1438.731798"/>
    <poly id="105187866" type="building.yes" color="255,230,230" fill="1" layer="-1.00" shape="792.691653,1483.510951 790.252724,1512.886890 779.868483,1512.039560 778.920884,1523.399845 756.907372,1521.577297 757.448675,1515.122268 747.900680,1514.334207 748.707860,1504.590566 749.461867,1495.504648 773.433954,1497.483692 774.717760,1482.032032 792.691653,1483.510951"/>
    <poly id="105187866#1" type="landuse.commercial" color="209,209,204" fill="1" layer="-3.00" shape="792.691653,1483.510951 790.252724,1512.886890 779.868483,1512.039560 778.920884,1523.399845 756.907372,1521.577297 757.448675,1515.122268 747.900680,1514.334207 748.707860,1504.590566 749.461867,1495.504648 773.433954,1497.483692 774.717760,1482.032032 792.691653,1483.510951"/>
    <poly id="107747053" type="amenity.parking" color="184,184,179" fill="1" layer="-1.00" shape="643.447945,1576.281357 651.930014,1580.097538 659.383690,1583.458251 661.683546,1548.510351 665.823741,1485.679800 649.467723,1484.610254 643.447945,1576.281357"/>
    <poly id="11548677" type="natural.water" color="181,209,209" fill="0" layer="-4.00" shape="2390.254310,797.524294 2360.374228,780.467116 2227.672724,710.627929 2219.353630,703.122205 2209.754785,696.078686 2207.050386,694.124232 2190.658145,682.267664 2148.847948,653.813168 2095.768394,627.254627 2084.110384,622.593584 2061.065728,613.265588 2054.053587,611.161524 2049.431809,610.006166 2033.861643,606.199433 1968.491273,598.329821 1902.166679,602.277403 1897.900288,603.072782 1895.368969,604.041219 1892.313720,605.878067 1889.365527,608.257801 1887.263501,610.218231 1885.670170,612.156284 1884.412689,613.931124 1865.977387,649.413003 1858.330947,664.059130 1744.382581,859.956464 1741.344699,865.020032 1738.848813,869.726643 1685.594792,975.928657 1671.000052,1017.324063 1633.039676,1113.239770 1624.997216,1129.553115 1546.846850,1280.930709 1542.125184,1318.079323 1514.108416,1423.812631 1493.827532,1478.932873 1494.615941,1480.506620 1494.691725,1482.697079 1481.536732,1503.797821 1479.753972,1503.603727 1470.672460,1519.840301 1416.639363,1559.208284 1334.154645,1658.508642 1323.180655,1671.716372 1310.906812,1686.599930 1298.785478,1701.012768 1240.065139,1772.390066 1242.728071,1774.623097 1233.167460,1786.353000 1230.471599,1784.165218 1228.199060,1788.188372 1222.808603,1790.578398"/>
    <poly id="11548679" type="natural.water" color="181,209,209" fill="0" layer="-4.00" shape="2064.627407,1102.610770 2045.871658,1117.401808 2011.016543,1160.890533 1965.703036,1225.652945 1957.837913,1237.744441 1947.852343,1253.098701 1941.294384,1262.902430 1889.503377,1349.296219 1883.005743,1361.201817 1881.672757,1360.474628 1879.741708,1364.011411 1881.081479,1364.738449 1862.710642,1398.082560 1863.084367,1399.020137 1852.292107,1418.075700 1851.023819,1418.738039 1847.096225,1418.246317 1843.995598,1418.314933 1843.255921,1418.631747 1829.056769,1442.313951 1829.320405,1444.411231 1829.939800,1446.634170 1831.603084,1448.177475 1833.452093,1450.751537 1832.404281,1453.400841 1828.844832,1460.033777 1827.753363,1462.550517 1826.311771,1465.809428 1813.761080,1488.208908 1775.926407,1555.712058 1752.776401,1598.465159 1752.081066,1598.024328 1747.755269,1606.209917 1748.310725,1606.464676 1732.826674,1633.992433 1732.539247,1634.499543 1731.950594,1634.890923 1731.388470,1634.947887 1730.910356,1634.813820 1729.947720,1634.256511 1730.578822,1633.330066 1727.396110,1631.219567 1726.470058,1632.619908 1711.200111,1654.790617 1716.993176,1658.300982 1718.840695,1660.808268 1718.454272,1664.199624 1707.345662,1684.853814 1696.738535,1701.179405 1683.169263,1713.397821 1672.649510,1719.573148 1603.968431,1746.956681 1603.015175,1744.985981 1492.102372,1791.323696 1469.549920,1802.751849 1418.525864,1820.688048 1381.070080,1831.891408 1293.323506,1850.623068 1289.655299,1851.405712 1274.519570,1854.780297 1204.812970,1867.025396 1138.281673,1874.326845 1124.351760,1875.761080 1091.893860,1876.973972 1040.595722,1874.311849 946.190651,1868.027464 870.136140,1861.323923 868.496908,1859.346420 843.692964,1843.442567 771.677535,1771.497697 686.627557,1691.666507 634.328587,1646.512015 590.685364,1623.586581 507.771425,1585.717589 484.350764,1575.014502 425.902984,1549.428906 414.484997,1543.954143 348.478968,1538.835882 313.593695,1536.948043 283.157343,1534.882680 254.190517,1535.989291 244.636626,1537.361119 240.231797,1538.294621 230.611736,1540.346755 217.665207,1544.498875 206.261050,1548.716530 193.224137,1554.584418 180.847285,1561.127429 169.526858,1567.557709 158.709982,1574.343914 148.036542,1581.772329 138.768499,1589.514136 131.133406,1596.217755 126.443232,1601.364061 123.544377,1604.667406 118.287408,1611.473369 114.506635,1616.610369 109.166302,1625.443466 105.600898,1632.912456 102.868839,1639.405724 100.424047,1647.806506 98.281374,1660.284376 96.239232,1677.533787 93.898220,1695.980590 91.699640,1715.025090 88.906537,1736.909411 87.039813,1747.166662 84.783952,1756.720492 78.460517,1776.759126 72.227716,1792.978916 64.335537,1812.374069 53.082936,1832.345590 48.346454,1839.039782 45.105033,1842.795999 40.363731,1847.465059 34.543397,1853.349073 10.649152,1873.471654 -24.095252,1835.540331 -9.523687,1821.302594 -1.447298,1813.119937 3.997584,1805.029909 9.210467,1798.091267 19.731873,1780.016689 21.306811,1777.310585 36.060360,1749.125832 41.026357,1736.640039 44.263958,1709.782708 46.894364,1690.027417 53.573578,1636.018866 67.809177,1599.867298 77.673639,1584.545074 88.499354,1571.215375 92.193565,1567.359993 109.198876,1551.421019 140.449782,1530.232281 153.390465,1522.196508 165.598268,1515.679485 174.123534,1511.426280 192.229653,1503.675140 209.820039,1497.137449 230.105443,1490.906507 244.380301,1487.559175 257.266232,1484.932990 275.263247,1482.592689 292.670376,1481.189296 306.038245,1480.677818 318.522767,1480.731458 320.333709,1482.782829 342.444265,1485.280042 379.556864,1491.124118 403.304537,1496.099747 426.765446,1502.517393 453.944681,1512.201245 481.433184,1522.968828 528.829449,1545.798141 562.948642,1561.380605 597.032942,1576.930698 631.524710,1593.106180 662.948838,1609.617591 664.018134,1607.957898 770.829656,1707.142975 769.589320,1708.439254 776.205528,1714.734308 782.863170,1721.061827 784.096722,1719.765703 824.204869,1757.415806 822.879319,1758.847508 828.013069,1763.506595 833.079961,1768.211690 834.398727,1766.780143 842.894379,1774.568918 878.695925,1802.690194 896.738159,1810.021085 898.535817,1810.581846 945.881292,1817.058486 945.750655,1819.720915 948.869568,1819.873868 949.000206,1817.211438 989.010121,1819.211954 1011.014329,1820.379170 1037.419804,1821.982473 1070.608483,1822.477732 1104.732682,1821.094048 1124.002657,1819.574167 1166.244758,1814.226651 1186.658839,1805.559838 1222.808603,1790.578398"/>
    <poly id="120456814" type="amenity.university" color="237,199,199" fill="1" layer="-1.00" shape="1198.921967,1475.274028 1295.796560,1483.934428 1296.688485,1478.562194 1299.378183,1478.635902 1301.351599,1475.498527 1314.004950,1362.883610 1318.314408,1311.856588 1242.927199,1305.287932 1167.390232,1298.712636 1162.794436,1350.224710 1154.562240,1471.621536 1198.921967,1475.274028"/>
    <poly id="121673258" type="landuse.construction" color="194,194,130" fill="1" layer="-3.00" shape="1613.159807,1239.222257 1625.174252,1244.386116 1649.062126,1209.160618 1663.473857,1218.655706 1634.741697,1265.327569 1672.748072,1283.646795 1661.867324,1302.059351 1635.669257,1286.649759 1614.716788,1286.168505 1608.192079,1298.664850 1621.402771,1301.454240 1633.989221,1305.481542 1647.014314,1310.311468 1670.640893,1324.865647 1691.439478,1336.177705 1701.049442,1325.360145 1720.763610,1297.838761 1653.729241,1255.559431 1719.557599,1156.378016 1659.667710,1115.542654 1654.723340,1113.293198 1651.198540,1118.734838 1662.897461,1127.722559 1661.856223,1129.136589 1662.373737,1129.514585 1657.430954,1135.911241 1659.493238,1137.378883 1658.169739,1138.921574 1656.006740,1140.260321 1653.520166,1140.782799 1651.629462,1140.624414 1649.843503,1139.985220 1648.278870,1138.918271 1645.920190,1141.841481 1624.149712,1172.769283 1625.621202,1173.615737 1626.494865,1174.442064 1627.216170,1175.438683 1627.928829,1177.270065 1628.051680,1179.136779 1627.808636,1180.421843 1627.312572,1181.623496 1626.224847,1183.083075 1624.761751,1182.002755 1619.131171,1190.439930 1635.767248,1202.278053 1613.159807,1239.222257"/>
    <poly id="121674885" type="building.yes" color="255,230,230" fill="1" layer="-1.00" shape="1512.690156,923.168078 1503.362845,918.601351 1500.517714,924.384095 1509.845017,928.950817 1511.293493,926.003234 1512.690156,923.168078"/>
    <poly id="121674886" type="building.apartments" color="255,230,230" fill="1" layer="-1.00" shape="1538.383435,774.367020 1538.487070,774.142169 1537.961983,773.730970 1537.743114,773.045915 1537.939896,772.429530 1538.331612,772.031372 1538.205029,771.833884 1562.205280,755.055127 1569.692907,765.738453 1564.489411,769.270051 1565.021897,770.014916 1565.167843,772.003520 1564.738001,772.825370 1570.873934,775.827250 1565.185806,787.503877 1538.383435,774.367020"/>
    <poly id="121717655" type="building.yes" color="255,230,230" fill="1" layer="-1.00" shape="1460.929914,1507.226506 1468.757833,1494.756636 1435.353148,1473.933224 1431.060823,1486.357989 1451.435393,1499.058273 1450.392702,1500.706066 1460.929914,1507.226506"/>
    <poly id="128396193" type="building.apartments" color="255,230,230" fill="1" layer="-1.00" shape="1663.102566,511.772017 1660.519849,544.121529 1638.286758,542.366515 1640.868344,509.972501 1648.975502,510.616255 1648.790251,512.979411 1655.380674,513.501006 1655.566668,511.171217 1663.102566,511.772017"/>
    <poly id="128441442" type="building.yes" color="255,230,230" fill="1" layer="-1.00" shape="1000.637617,1411.412912 1003.001504,1382.873377 985.955613,1381.317340 968.426909,1380.028068 966.063220,1408.567623 1000.637617,1411.412912"/>
    <poly id="128441444" type="building.yes" color="255,230,230" fill="1" layer="-1.00" shape="1014.651160,1383.837630 1012.847075,1405.521162 1012.280173,1412.366188 1000.637617,1411.412912 1003.001504,1382.873377 1008.720920,1383.346723 1014.651160,1383.837630"/>
    <poly id="128441446" type="building.yes" color="255,230,230" fill="1" layer="-1.00" shape="1012.280173,1412.366188 1011.306514,1424.105329 1009.927345,1440.794196 975.482321,1437.957090 976.958193,1420.131031 977.090252,1419.660723 990.565833,1420.929144 992.800968,1422.837760 992.151601,1429.940566 999.081873,1430.531552 1000.637617,1411.412912 1012.280173,1412.366188"/>
    <poly id="128441447" type="building.yes" color="255,230,230" fill="1" layer="-1.00" shape="968.426909,1380.028068 962.795934,1379.563923 950.969601,1378.592607 945.869079,1378.172284 943.505271,1406.700729 966.063220,1408.567623 968.426909,1380.028068"/>
    <poly id="128441453" type="building.yes" color="255,230,230" fill="1" layer="-1.00" shape="950.785499,1421.148913 958.704046,1421.918090 959.648606,1412.227074 951.723259,1411.458047 950.785499,1421.148913"/>
    <poly id="128441454" type="building.yes" color="255,230,230" fill="1" layer="-1.00" shape="975.482321,1437.957090 963.703624,1436.984685 965.179454,1419.158622 976.958193,1420.131031 975.482321,1437.957090"/>
    <poly id="128441456" type="building.yes" color="255,230,230" fill="1" layer="-1.00" shape="966.063220,1408.567623 943.505271,1406.700729 941.146052,1435.128926 963.703624,1436.984685 965.179454,1419.158622 966.063220,1408.567623"/>
    <poly id="131765142" type="building.yes" color="255,230,230" fill="1" layer="-1.00" shape="1373.789173,1470.115701 1392.897894,1472.272633 1395.762055,1470.116990 1398.816284,1470.405205 1400.084348,1472.179704 1402.812777,1472.163587 1420.278169,1483.459543 1421.505535,1485.846970 1429.330649,1491.281454 1431.060823,1486.357989 1435.353148,1473.933224 1407.385307,1456.160600 1406.837387,1457.163134 1405.877779,1457.050924 1405.858997,1456.205641 1405.064041,1455.255201 1404.302155,1454.571089 1402.962109,1454.445079 1402.047792,1454.843734 1401.093150,1455.565988 1400.555364,1457.024530 1398.303698,1456.807501 1389.814398,1456.005792 1380.698183,1455.095626 1379.640519,1464.010112 1375.817142,1463.627727 1373.789173,1470.115701"/>
    <poly id="131765147" type="building.yes" color="255,230,230" fill="1" layer="-1.00" shape="1416.191447,1500.553359 1418.893661,1502.718849 1421.447959,1504.642818 1424.113125,1505.752009 1429.330649,1491.281454 1421.505535,1485.846970 1416.191447,1500.553359"/>
    <poly id="131835798" type="building.theatre" color="255,230,230" fill="1" layer="-1.00" shape="1326.959291,1442.369581 1324.169394,1469.538543 1322.853123,1482.386852 1322.440836,1486.435353 1341.558641,1488.391584 1343.830898,1488.619257 1347.588035,1451.825654 1345.322547,1451.597829 1346.070233,1444.314860 1341.913398,1443.895405 1336.205194,1443.310148 1331.075422,1442.789929 1326.959291,1442.369581"/>
    <poly id="131835798#1" type="historic.yes" color="128,255,128" fill="1" layer="-1.00" shape="1326.959291,1442.369581 1324.169394,1469.538543 1322.853123,1482.386852 1322.440836,1486.435353 1341.558641,1488.391584 1343.830898,1488.619257 1347.588035,1451.825654 1345.322547,1451.597829 1346.070233,1444.314860 1341.913398,1443.895405 1336.205194,1443.310148 1331.075422,1442.789929 1326.959291,1442.369581"/>
    <poly id="137118022" type="amenity.school" color="237,199,199" fill="1" layer="-1.00" shape="536.273443,755.131043 506.013496,745.994096 498.412348,771.268425 500.033256,771.799630 498.402008,776.565438 496.978633,776.063193 496.811366,776.779112 497.398918,776.943993 490.391194,801.125661 492.593107,801.833017 489.830121,812.143518 486.953448,811.317746 480.764725,832.354203 483.777846,833.210296 480.615799,843.585382 477.255373,842.681434 472.026370,860.491626 470.987263,861.382869 520.852254,876.245204 523.934313,876.543393 526.282283,875.589466 527.639251,873.734136 536.495358,843.869393 536.562274,842.310018 535.925047,840.532729 534.424745,839.019576 505.724374,830.381854 503.736685,829.235713 502.285043,826.864648 501.950910,824.980425 502.262844,823.448944 507.418975,805.106293 509.701293,803.341509 512.770435,801.848423 515.980712,800.897435 548.558805,810.794849 553.885134,806.413691 559.402550,787.217310 529.397153,778.219189 531.397712,771.753713 536.273443,755.131043"/>
    <poly id="138554284" type="landuse.commercial" color="209,209,204" fill="1" layer="-3.00" shape="771.921941,701.332292 756.315900,699.911712 756.267753,700.491427 753.113694,700.317102 752.371900,709.959114 751.936618,709.924331 750.596987,727.446966 751.018696,727.482053 750.266325,737.257834 749.662945,745.194220 748.254762,763.597476 747.261432,776.260710 760.840464,777.214676 760.855428,776.669086 763.507548,776.865757 763.465193,777.400832 764.682309,777.484911 767.022537,777.699682 768.913173,777.846606 768.968852,777.300106 771.349545,777.502847 771.313974,778.037770 783.651469,779.030668 821.402311,781.937416 824.163492,782.153940 824.108055,782.711562 863.049299,785.725575 863.085625,785.224019 865.608807,785.423625 866.858297,769.928280 868.793128,747.117890 859.995890,746.268289 855.913549,745.869816 824.293750,742.692331 824.281093,743.037571 817.419670,742.534281 800.739075,741.326735 798.236223,741.126708 793.679618,740.772264 795.485261,716.751805 771.013781,714.772551 771.921941,701.332292"/>
    <poly id="138554286" type="landuse.commercial" color="209,209,204" fill="1" layer="-3.00" shape="764.965051,1074.186865 801.742116,1077.059507 802.557586,1077.096927 803.122251,1077.151079 803.096028,1077.496623 805.516789,1077.676225 808.264234,1077.893041 808.297243,1077.547345 816.485049,1078.187893 816.441698,1078.678479 833.357386,1079.825150 833.390893,1079.501699 834.702678,1079.572551 838.463604,1079.878026 842.149644,1080.174049 871.883200,1082.581365 903.244678,1084.930271 906.078584,1083.242381 906.949667,1071.171679 907.764487,1059.925681 908.230940,1053.450097 908.652214,1047.687693 908.834924,1044.923955 909.219542,1039.039964 909.755843,1030.826907 911.534800,1009.244050 875.087569,1006.263056 868.531362,1005.730639 864.124286,1005.372799 859.295525,1004.979868 843.680139,1003.703913 827.193984,1002.347307 822.534601,1001.939501 820.521172,1001.761919 818.752761,1001.612248 816.644338,1001.436789 814.765870,1001.222812 814.599995,1003.218370 814.338069,1006.384479 813.547249,1015.960813 812.751884,1025.637397 812.479124,1028.926153 811.992591,1034.801304 805.157471,1034.241819 804.703212,1039.737909 767.276546,1036.668326 750.397919,1035.365262 729.974942,1033.729763 728.159041,1033.581187 726.591503,1053.045156 737.289095,1053.896531 740.812068,1054.184996 745.260322,1054.564058 745.106791,1058.629092 743.991394,1072.507981 764.965051,1074.186865"/>
    <poly id="138554287" type="landuse.commercial" color="209,209,204" fill="1" layer="-3.00" shape="739.584184,873.510116 763.323799,875.583435 782.281247,877.229583 793.443355,878.193120 814.407473,880.017116 819.930719,880.494645 828.330442,881.186129 845.891843,882.641147 856.060010,883.482361 878.477410,885.329819 897.779834,886.924200 921.162969,888.850447 922.341338,873.812940 924.043573,852.131659 925.317055,835.879117 926.511597,820.652082 927.134859,812.681900 919.747830,812.045539 904.552066,810.737751 876.262226,808.297951 861.678628,807.043395 857.808181,806.706957 851.356968,806.327997 840.204479,805.497640 832.689988,804.931022 825.631123,804.398750 815.165461,803.619877 807.399398,803.036660 805.284600,802.883601 794.750826,802.095166 790.656940,801.786027 781.964299,801.056636 757.021790,798.943331 745.445073,797.966882 742.440605,836.680439 739.584184,873.510116"/>
    <poly id="143296211" type="landuse.commercial" color="209,209,204" fill="1" layer="-3.00" shape="1199.881968,911.526255 1203.990941,857.309974 1241.699363,860.187490 1262.003500,861.649741 1262.545197,852.735586 1262.847290,849.835681 1260.976813,849.676992 1261.715572,839.245095 1262.199241,829.553297 1295.876319,832.175956 1295.242313,841.826581 1293.164555,864.706682 1291.874156,877.810343 1291.159056,888.697941 1290.904374,892.509254 1290.689773,905.143887 1290.613545,914.537303 1201.959193,913.349465 1200.687939,912.966037 1199.881968,911.526255"/>
    <poly id="145095631" type="building.yes" color="255,230,230" fill="1" layer="-1.00" shape="1606.867952,1142.228875 1603.697391,1150.477981 1596.027388,1147.154015 1599.596904,1139.140863 1606.867952,1142.228875"/>
    <poly id="146594546" type="building.yes" color="255,230,230" fill="1" layer="-1.00" shape="1194.621054,1055.801926 1201.625712,1056.358177 1201.004637,1064.139094 1205.751383,1064.511929 1205.470239,1068.045648 1209.339704,1068.348992 1208.728971,1075.985018 1211.972704,1076.235525 1210.709331,1092.064892 1210.694174,1092.298910 1209.939284,1092.237818 1208.531590,1109.817439 1208.462939,1110.698050 1203.811231,1110.323099 1189.652545,1109.202803 1189.684343,1108.801500 1189.208142,1108.756463 1189.839046,1100.808409 1191.002038,1100.904924 1191.892577,1090.592031 1192.748855,1079.044733 1191.572288,1078.948520 1192.182746,1071.301369 1192.944425,1071.362307 1193.253296,1067.549778 1192.831621,1067.514654 1193.478439,1059.365950 1193.906900,1059.400923 1194.012648,1058.052125 1194.172632,1056.090098 1194.594060,1056.114100 1194.621054,1055.801926"/>
    <poly id="146824851" type="building.yes" color="255,230,230" fill="1" layer="-1.00" shape="1449.785809,764.215626 1431.753681,736.374185 1431.532717,736.512624 1428.424998,731.696621 1428.897279,726.367132 1429.135273,726.384101 1430.361077,713.103886 1430.068550,713.077000 1430.449191,708.817797 1429.531141,708.749165 1430.298353,700.497691 1431.171375,700.678599 1431.525007,696.731569 1435.597081,696.974963 1435.630371,696.028376 1443.856196,696.524488 1443.809332,697.471375 1448.010333,697.711916 1447.856002,698.405255 1449.461989,697.657426 1449.381172,697.381031 1455.232890,693.690259 1455.417716,694.064494 1463.363011,688.958550 1463.227168,688.649993 1469.909229,684.440061 1474.345813,696.515174 1467.423053,700.585785 1473.480515,709.831880 1478.095511,706.702717 1480.182508,712.331469 1481.152286,715.036206 1477.774255,717.002890 1482.609487,724.406689 1484.302450,723.601303 1489.445442,737.530185 1485.023551,740.488138 1473.830358,747.913931 1449.785809,764.215626"/>
    <poly id="146824852" type="building.yes" color="255,230,230" fill="1" layer="-1.00" shape="1297.808767,806.728608 1299.449495,786.784797 1314.348071,787.555162 1313.140474,802.860243 1311.795287,819.915421 1311.726967,820.506704 1304.239968,819.949882 1296.570746,819.441634 1297.808767,806.728608"/>
    <poly id="147030009" type="building.apartments" color="255,230,230" fill="1" layer="-1.00" shape="1456.814164,619.667653 1456.530337,623.702150 1437.464035,622.378487 1437.597985,620.461563 1438.571777,606.530421 1456.019645,607.734238 1456.235012,604.591470 1475.240055,605.905441 1475.550422,601.536528 1494.514507,602.840355 1493.648991,615.233466 1493.438658,618.298227 1475.412809,617.051471 1475.139082,620.929956 1456.814164,619.667653"/>
    <poly id="147030010" type="building.apartments" color="255,230,230" fill="1" layer="-1.00" shape="1590.906629,718.509762 1591.397661,719.222167 1591.224193,719.359545 1587.549588,714.077532 1582.990053,717.260998 1583.705136,718.280006 1577.995485,722.256789 1571.461758,712.954370 1576.469521,709.471634 1575.734078,708.453079 1590.629961,698.074491 1591.392053,699.070203 1596.165795,695.748464 1595.383594,694.764325 1610.105843,684.512055 1610.794275,685.553912 1615.929050,681.979382 1615.166962,680.983667 1630.216865,670.501643 1637.485718,680.811581 1632.324276,684.408935 1633.895076,686.666399 1632.210460,687.849886 1633.094066,689.121100 1629.824650,691.396841 1630.322958,692.131344 1630.135422,692.246777 1628.053975,689.310723 1626.454796,686.998252 1621.935432,690.158534 1622.609796,691.178450 1613.156041,697.764163 1614.726847,700.021622 1613.068889,701.182269 1613.919062,702.476476 1610.649664,704.752231 1611.147727,705.475609 1610.967225,705.602015 1607.205898,700.388676 1602.659662,703.560700 1603.374743,704.579711 1593.406185,711.521835 1594.976995,713.779287 1593.292151,714.951665 1594.176009,716.233994 1590.906629,718.509762"/>
    <poly id="147065881" type="building.yes" color="255,230,230" fill="1" layer="-1.00" shape="1503.933857,911.600535 1503.381780,912.725550 1502.338542,912.214581 1500.545251,915.837477 1501.622909,916.369937 1501.070586,917.483831 1503.362845,918.601351 1512.690156,923.168078 1514.379082,919.736672 1515.574286,917.306582 1503.933857,911.600535"/>
    <poly id="147065882" type="building.apartments" color="255,230,230" fill="1" layer="-1.00" shape="1521.329738,905.617263 1504.219310,897.239578 1501.334933,903.089958 1506.805154,905.772702 1518.445593,911.478756 1519.835726,908.654874 1521.329738,905.617263"/>
    <poly id="147065883" type="building.yes" color="255,230,230" fill="1" layer="-1.00" shape="1509.845017,928.950817 1500.517714,924.384095 1498.129227,923.213074 1495.205890,929.142217 1506.921670,934.879953 1508.331404,932.022250 1509.845017,928.950817"/>
    <poly id="147065884" type="building.apartments" color="255,230,230" fill="1" layer="-1.00" shape="1535.666802,876.511986 1512.235015,865.036403 1509.428577,870.729261 1532.860345,882.204830 1534.211510,879.459711 1535.666802,876.511986"/>
    <poly id="147065885" type="building.residential" color="255,230,230" fill="1" layer="-1.00" shape="1538.486096,870.785476 1526.639801,864.983792 1525.581150,867.143786 1520.213915,864.514373 1521.363612,862.174316 1515.138552,859.129968 1512.235015,865.036403 1535.666802,876.511986 1537.225728,873.339409 1538.486096,870.785476"/>
    <poly id="147065886" type="building.yes" color="255,230,230" fill="1" layer="-1.00" shape="1524.181444,899.823259 1507.071001,891.445563 1504.219310,897.239578 1521.329738,905.617263 1522.564181,903.119539 1524.181444,899.823259"/>
    <poly id="147065887" type="building.apartments" color="255,230,230" fill="1" layer="-1.00" shape="1555.521680,835.700503 1534.594621,825.437791 1532.281724,824.309586 1529.488562,829.991008 1552.721713,841.382062 1554.046993,838.693163 1555.521680,835.700503"/>
    <poly id="147065888" type="building.apartments" color="255,230,230" fill="1" layer="-1.00" shape="1523.752361,841.635374 1520.874463,847.474469 1544.114341,858.865331 1545.439364,856.165307 1546.992012,853.015128 1523.752361,841.635374"/>
    <poly id="147065890" type="building.yes" color="255,230,230" fill="1" layer="-1.00" shape="1532.860345,882.204830 1509.428577,870.729261 1506.466454,876.748277 1508.964763,877.972503 1529.898201,888.223832 1531.366071,885.231315 1532.860345,882.204830"/>