<?xml version="1.0" encoding="UTF-8"?>

<!-- generated on Fri Aug  6 19:52:24 2021 by Eclipse SUMO netconvert Version 1.9.0
<configuration xmlns:xsi="http://www.w3.org/2001/XMLSchema-instance" xsi:noNamespaceSchemaLocation="http://sumo.dlr.de/xsd/netconvertConfiguration.xsd">

    <input>
        <type-files value="/usr/local/opt/sumo/share/sumo/data/typemap/osmNetconvert.typ.xml,/usr/local/opt/sumo/share/sumo/data/typemap/osmNetconvertUrbanDe.typ.xml,/usr/local/opt/sumo/share/sumo/data/typemap/osmNetconvertPedestrians.typ.xml"/>
        <osm-files value="osm_bbox.osm.xml"/>
    </input>

    <output>
        <output-file value="osm.net.xml"/>
        <output.street-names value="true"/>
        <output.original-names value="true"/>
        <ptstop-output value="osm_stops.add.xml"/>
        <ptline-output value="osm_ptlines.xml"/>
    </output>

    <projection>
        <proj.utm value="true"/>
    </projection>

    <processing>
        <geometry.remove value="true"/>
        <roundabouts.guess value="true"/>
    </processing>

    <tls_building>
        <tls.discard-simple value="true"/>
        <tls.join value="true"/>
        <tls.guess-signals value="true"/>
        <tls.default-type value="actuated"/>
    </tls_building>

    <ramp_guessing>
        <ramps.guess value="true"/>
    </ramp_guessing>

    <junctions>
        <junctions.join value="true"/>
        <junctions.corner-detail value="5"/>
    </junctions>

    <pedestrian>
        <crossings.guess value="true"/>
    </pedestrian>

    <railway>
        <railway.topology.repair value="true"/>
        <railway.topology.repair.stop-turn value="true"/>
    </railway>

    <report>
        <verbose value="true"/>
        <aggregate-warnings value="5"/>
    </report>

</configuration>
-->

<net version="1.9" junctionCornerDetail="5" walkingareas="true" limitTurnSpeed="5.50" xmlns:xsi="http://www.w3.org/2001/XMLSchema-instance" xsi:noNamespaceSchemaLocation="http://sumo.dlr.de/xsd/net_file.xsd">

    <location netOffset="-389769.03,-5818514.03" convBoundary="0.00,0.00,2260.78,1655.10" origBoundary="13.375902,52.505595,13.408723,52.520733" projParameter="+proj=utm +zone=33 +ellps=WGS84 +datum=WGS84 +units=m +no_defs"/>

    <type id="highway.bridleway" priority="1" numLanes="1" speed="2.78" allow="pedestrian" oneway="1" width="2.00"/>
    <type id="highway.bus_guideway" priority="1" numLanes="1" speed="13.89" allow="bus" oneway="1"/>
    <type id="highway.cycleway" priority="1" numLanes="1" speed="8.33" allow="bicycle" oneway="0" width="1.00"/>
    <type id="highway.footway" priority="1" numLanes="1" speed="2.78" allow="pedestrian" oneway="1" width="2.00"/>
    <type id="highway.ford" priority="1" numLanes="1" speed="2.78" allow="army" oneway="0"/>
    <type id="highway.living_street" priority="2" numLanes="1" speed="2.78" disallow="tram rail_urban rail rail_electric rail_fast ship" oneway="0"/>
    <type id="highway.motorway" priority="14" numLanes="2" speed="27.78" allow="private emergency authority army vip passenger hov taxi bus coach delivery truck trailer motorcycle evehicle custom1 custom2" oneway="1"/>
    <type id="highway.motorway_link" priority="9" numLanes="1" speed="16.67" allow="private emergency authority army vip passenger hov taxi bus coach delivery truck trailer motorcycle evehicle custom1 custom2" oneway="1"/>
    <type id="highway.path" priority="1" numLanes="1" speed="2.78" allow="pedestrian bicycle" oneway="0" width="2.00"/>
    <type id="highway.pedestrian" priority="1" numLanes="1" speed="2.78" allow="pedestrian" oneway="1" width="2.00"/>
    <type id="highway.primary" priority="12" numLanes="2" speed="13.89" disallow="pedestrian tram rail_urban rail rail_electric rail_fast ship" oneway="0" sidewalkWidth="3.00"/>
    <type id="highway.primary_link" priority="7" numLanes="1" speed="13.89" disallow="pedestrian tram rail_urban rail rail_electric rail_fast ship" oneway="0" sidewalkWidth="3.00"/>
    <type id="highway.raceway" priority="15" numLanes="2" speed="83.33" allow="vip" oneway="0"/>
    <type id="highway.residential" priority="3" numLanes="1" speed="13.89" disallow="pedestrian tram rail_urban rail rail_electric rail_fast ship" oneway="0" sidewalkWidth="2.00"/>
    <type id="highway.secondary" priority="11" numLanes="1" speed="13.89" disallow="pedestrian tram rail_urban rail rail_electric rail_fast ship" oneway="0" sidewalkWidth="3.00"/>
    <type id="highway.secondary_link" priority="6" numLanes="1" speed="13.89" disallow="pedestrian tram rail_urban rail rail_electric rail_fast ship" oneway="0" sidewalkWidth="3.00"/>
    <type id="highway.service" priority="1" numLanes="1" speed="5.56" allow="pedestrian delivery bicycle" oneway="0"/>
    <type id="highway.stairs" priority="1" numLanes="1" speed="1.39" allow="pedestrian" oneway="1" width="2.00"/>
    <type id="highway.step" priority="1" numLanes="1" speed="1.39" allow="pedestrian" oneway="1" width="2.00"/>
    <type id="highway.steps" priority="1" numLanes="1" speed="1.39" allow="pedestrian" oneway="1" width="2.00"/>
    <type id="highway.tertiary" priority="10" numLanes="1" speed="13.89" disallow="pedestrian tram rail_urban rail rail_electric rail_fast ship" oneway="0" sidewalkWidth="3.00"/>
    <type id="highway.tertiary_link" priority="5" numLanes="1" speed="13.89" disallow="pedestrian tram rail_urban rail rail_electric rail_fast ship" oneway="0" sidewalkWidth="2.00"/>
    <type id="highway.track" priority="1" numLanes="1" speed="5.56" allow="pedestrian motorcycle moped bicycle" oneway="0"/>
    <type id="highway.trunk" priority="13" numLanes="2" speed="13.89" disallow="pedestrian bicycle tram rail_urban rail rail_electric rail_fast ship" oneway="0"/>
    <type id="highway.trunk_link" priority="8" numLanes="1" speed="13.89" disallow="pedestrian bicycle tram rail_urban rail rail_electric rail_fast ship" oneway="0"/>
    <type id="highway.unclassified" priority="4" numLanes="1" speed="13.89" disallow="pedestrian tram rail_urban rail rail_electric rail_fast ship" oneway="0" sidewalkWidth="2.00"/>
    <type id="highway.unsurfaced" priority="1" numLanes="1" speed="8.33" disallow="tram rail_urban rail rail_electric rail_fast ship" oneway="0"/>
    <type id="railway.highspeed" priority="21" numLanes="1" speed="69.44" allow="rail_fast" oneway="1"/>
    <type id="railway.light_rail" priority="19" numLanes="1" speed="27.78" allow="rail_urban" oneway="1"/>
    <type id="railway.preserved" priority="16" numLanes="1" speed="27.78" allow="rail" oneway="1"/>
    <type id="railway.rail" priority="20" numLanes="1" speed="44.44" allow="rail" oneway="1"/>
    <type id="railway.subway" priority="18" numLanes="1" speed="27.78" allow="rail_urban" oneway="1"/>
    <type id="railway.tram" priority="17" numLanes="1" speed="13.89" allow="tram" oneway="1"/>

    <edge id=":1001074214_0" function="internal">
        <lane id=":1001074214_0_0" index="0" disallow="pedestrian tram rail_urban rail rail_electric rail_fast ship" speed="13.89" length="5.01" shape="1373.46,545.30 1378.46,545.62"/>
        <lane id=":1001074214_0_1" index="1" disallow="pedestrian tram rail_urban rail rail_electric rail_fast ship" speed="13.89" length="5.01" shape="1373.26,548.50 1378.25,548.82"/>
        <lane id=":1001074214_0_2" index="2" disallow="pedestrian tram rail_urban rail rail_electric rail_fast ship" speed="13.89" length="5.01" shape="1373.05,551.69 1378.05,552.01"/>
    </edge>
    <edge id=":1001074214_w0" function="walkingarea">
        <lane id=":1001074214_w0_0" index="0" allow="pedestrian" speed="1.00" length="4.27" width="3.00" shape="1378.56,544.02 1378.75,541.03 1377.34,539.43 1375.35,539.31 1373.76,540.71 1373.57,543.71"/>
    </edge>
    <edge id=":1001074218_0" function="internal">
        <lane id=":1001074218_0_0" index="0" disallow="pedestrian tram rail_urban rail rail_electric rail_fast ship" speed="13.89" length="4.98" shape="1402.62,547.15 1407.60,547.48"/>
        <lane id=":1001074218_0_1" index="1" disallow="pedestrian tram rail_urban rail rail_electric rail_fast ship" speed="13.89" length="4.98" shape="1402.42,550.35 1407.38,550.67"/>
        <lane id=":1001074218_0_2" index="2" disallow="pedestrian tram rail_urban rail rail_electric rail_fast ship" speed="13.89" length="4.98" shape="1402.21,553.54 1407.17,553.86"/>
    </edge>
    <edge id=":1001074218_w0" function="walkingarea">
        <lane id=":1001074218_w0_0" index="0" allow="pedestrian" speed="1.00" length="4.29" width="3.00" shape="1407.70,545.88 1407.90,542.89 1406.55,541.30 1404.56,541.10 1402.91,542.56 1402.72,545.56"/>
    </edge>
    <edge id=":1041979356_0" function="internal">
        <lane id=":1041979356_0_0" index="0" disallow="pedestrian tram rail_urban rail rail_electric rail_fast ship" speed="8.33" length="6.55" shape="1176.42,623.13 1169.91,622.42"/>
    </edge>
    <edge id=":1041979356_1" function="internal">
        <lane id=":1041979356_1_0" index="0" allow="delivery bicycle" speed="6.74" length="9.66" shape="1176.42,623.13 1175.15,622.50 1174.32,620.85 1173.94,618.18 1173.99,614.49"/>
    </edge>
    <edge id=":1041979356_2" function="internal">
        <lane id=":1041979356_2_0" index="0" disallow="pedestrian tram rail_urban rail rail_electric rail_fast ship" speed="3.65" length="4.67" shape="1176.42,623.13 1175.29,622.24 1174.96,621.41 1175.42,620.64 1176.68,619.94"/>
    </edge>
    <edge id=":1041979356_3" function="internal">
        <lane id=":1041979356_3_0" index="0" allow="delivery bicycle" speed="5.64" length="6.84" shape="1170.34,619.25 1171.81,619.12 1172.91,618.28 1173.64,616.74 1173.99,614.49"/>
    </edge>
    <edge id=":1041979356_4" function="internal">
        <lane id=":1041979356_4_0" index="0" disallow="pedestrian tram rail_urban rail rail_electric rail_fast ship" speed="8.33" length="6.38" shape="1170.34,619.25 1176.68,619.94"/>
    </edge>
    <edge id=":1041979356_5" function="internal">
        <lane id=":1041979356_5_0" index="0" disallow="pedestrian tram rail_urban rail rail_electric rail_fast ship" speed="3.65" length="4.67" shape="1170.34,619.25 1171.42,620.20 1171.71,621.05 1171.21,621.79 1169.91,622.42"/>
    </edge>
    <edge id=":1041979356_c0" function="crossing" crossingEdges="-375459782#0 375459782#0">
        <lane id=":1041979356_c0_0" index="0" allow="pedestrian" speed="1.00" length="6.40" width="4.00" shape="1174.82,618.18 1174.30,624.56"/>
    </edge>
    <edge id=":1041979356_w0" function="walkingarea">
        <lane id=":1041979356_w0_0" index="0" allow="pedestrian" speed="1.00" length="4.55" width="4.00" shape="1169.70,624.01 1169.44,625.99 1176.13,626.72 1176.29,624.73 1172.31,624.40"/>
    </edge>
    <edge id=":1041979356_w1" function="walkingarea">
        <lane id=":1041979356_w1_0" index="0" allow="pedestrian" speed="1.00" length="4.12" width="4.00" shape="1172.83,618.02 1176.81,618.35 1176.98,616.35 1175.59,614.59 1172.40,614.38 1170.81,615.68 1170.55,617.66"/>
    </edge>
    <edge id=":1041979358_0" function="internal">
        <lane id=":1041979358_0_0" index="0" allow="delivery bicycle" speed="5.72" length="6.70" shape="1093.22,598.20 1090.97,598.23 1089.33,598.68 1088.29,599.57 1087.86,600.88"/>
    </edge>
    <edge id=":1041979358_1" function="internal">
        <lane id=":1041979358_1_0" index="0" allow="delivery bicycle" speed="6.67" length="9.62" shape="1093.22,598.20 1089.60,597.74 1087.06,596.96 1085.59,595.86 1085.18,594.44"/>
    </edge>
    <edge id=":1041979358_2" function="internal">
        <lane id=":1041979358_2_0" index="0" disallow="pedestrian tram rail_urban rail rail_electric rail_fast ship" speed="8.33" length="6.20" shape="1088.37,594.70 1087.86,600.88"/>
    </edge>
    <edge id=":1041979358_3" function="internal">
        <lane id=":1041979358_3_0" index="0" disallow="pedestrian tram rail_urban rail rail_electric rail_fast ship" speed="3.65" length="2.34" shape="1088.37,594.70 1087.48,595.83 1086.65,596.16"/>
    </edge>
    <edge id=":1041979358_6" function="internal">
        <lane id=":1041979358_6_0" index="0" disallow="pedestrian tram rail_urban rail rail_electric rail_fast ship" speed="3.65" length="2.34" shape="1086.65,596.16 1085.88,595.70 1085.18,594.44"/>
    </edge>
    <edge id=":1041979358_4" function="internal">
        <lane id=":1041979358_4_0" index="0" disallow="pedestrian tram rail_urban rail rail_electric rail_fast ship" speed="8.33" length="6.20" shape="1084.67,600.62 1085.18,594.44"/>
    </edge>
    <edge id=":1041979358_5" function="internal">
        <lane id=":1041979358_5_0" index="0" disallow="pedestrian tram rail_urban rail rail_electric rail_fast ship" speed="3.65" length="2.34" shape="1084.67,600.62 1085.57,599.49 1086.40,599.15"/>
    </edge>
    <edge id=":1041979358_7" function="internal">
        <lane id=":1041979358_7_0" index="0" disallow="pedestrian tram rail_urban rail rail_electric rail_fast ship" speed="3.65" length="2.34" shape="1086.40,599.15 1087.16,599.62 1087.86,600.88"/>
    </edge>
    <edge id=":1041979358_c0" function="crossing" crossingEdges="22972470#3 -22972470#3">
        <lane id=":1041979358_c0_0" index="0" allow="pedestrian" speed="1.00" length="6.40" width="4.00" shape="1083.42,596.30 1089.80,596.83"/>
    </edge>
    <edge id=":1041979358_w0" function="walkingarea">
        <lane id=":1041979358_w0_0" index="0" allow="pedestrian" speed="1.00" length="4.07" width="4.00" shape="1089.45,601.01 1091.45,601.18 1093.10,599.79 1093.33,596.60 1091.96,595.00 1089.97,594.83 1089.64,598.82"/>
    </edge>
    <edge id=":1041979358_w1" function="walkingarea">
        <lane id=":1041979358_w1_0" index="0" allow="pedestrian" speed="1.00" length="4.25" width="4.00" shape="1083.26,598.29 1083.59,594.30 1081.60,594.14 1081.08,600.32 1083.08,600.49"/>
    </edge>
    <edge id=":1085513888_0" function="internal" bidi=":1085513888_1">
        <lane id=":1085513888_0_0" index="0" allow="tram" speed="13.89" length="0.14" shape="1004.82,1448.92 1004.96,1448.93"/>
    </edge>
    <edge id=":1085513888_1" function="internal" bidi=":1085513888_0">
        <lane id=":1085513888_1_0" index="0" allow="tram" speed="13.89" length="0.13" shape="1004.96,1448.93 1004.84,1448.86"/>
    </edge>
    <edge id=":1204940509_0" function="internal">
        <lane id=":1204940509_0_0" index="0" disallow="pedestrian tram rail_urban rail rail_electric rail_fast ship" speed="8.33" length="9.40" shape="1171.39,721.57 1162.01,720.89"/>
    </edge>
    <edge id=":1204940509_1" function="internal">
        <lane id=":1204940509_1_0" index="0" allow="delivery bicycle" speed="5.56" length="4.63" shape="1171.39,721.57 1168.56,720.83 1167.31,719.67"/>
    </edge>
    <edge id=":1204940509_2" function="internal">
        <lane id=":1204940509_2_0" index="0" disallow="pedestrian tram rail_urban rail rail_electric rail_fast ship" speed="3.65" length="2.34" shape="1171.39,721.57 1170.25,720.68 1169.90,719.86"/>
    </edge>
    <edge id=":1204940509_9" function="internal">
        <lane id=":1204940509_9_0" index="0" allow="delivery bicycle" speed="5.56" length="7.47" shape="1167.31,719.67 1166.69,719.09 1165.76,716.36 1165.79,712.62"/>
    </edge>
    <edge id=":1204940509_10" function="internal">
        <lane id=":1204940509_10_0" index="0" disallow="pedestrian tram rail_urban rail rail_electric rail_fast ship" speed="3.65" length="2.34" shape="1169.90,719.86 1170.36,719.09 1171.62,718.37"/>
    </edge>
    <edge id=":1204940509_3" function="internal">
        <lane id=":1204940509_3_0" index="0" allow="delivery bicycle" speed="5.56" length="6.79" shape="1168.97,713.00 1168.90,715.26 1169.33,716.91 1170.23,717.95 1171.62,718.37"/>
    </edge>
    <edge id=":1204940509_4" function="internal">
        <lane id=":1204940509_4_0" index="0" allow="delivery bicycle" speed="5.56" length="11.79" shape="1168.97,713.00 1168.16,716.61 1166.73,719.13 1164.68,720.56 1162.01,720.89"/>
    </edge>
    <edge id=":1204940509_5" function="internal">
        <lane id=":1204940509_5_0" index="0" allow="pedestrian delivery bicycle" speed="2.78" length="4.67" shape="1168.97,713.00 1168.03,714.10 1167.19,714.40 1166.44,713.91 1165.79,712.62"/>
    </edge>
    <edge id=":1204940509_6" function="internal">
        <lane id=":1204940509_6_0" index="0" allow="delivery bicycle" speed="5.56" length="6.85" shape="1162.24,717.70 1163.56,717.46 1164.59,716.53 1165.33,714.92 1165.79,712.62"/>
    </edge>
    <edge id=":1204940509_7" function="internal">
        <lane id=":1204940509_7_0" index="0" disallow="pedestrian tram rail_urban rail rail_electric rail_fast ship" speed="8.33" length="9.41" shape="1162.24,717.70 1171.62,718.37"/>
    </edge>
    <edge id=":1204940509_8" function="internal">
        <lane id=":1204940509_8_0" index="0" disallow="pedestrian tram rail_urban rail rail_electric rail_fast ship" speed="3.65" length="2.34" shape="1162.24,717.70 1163.37,718.58 1163.72,719.41"/>
    </edge>
    <edge id=":1204940509_11" function="internal">
        <lane id=":1204940509_11_0" index="0" disallow="pedestrian tram rail_urban rail rail_electric rail_fast ship" speed="3.65" length="2.34" shape="1163.72,719.41 1163.26,720.18 1162.01,720.89"/>
    </edge>
    <edge id=":1204940509_c0" function="crossing" crossingEdges="23755961#1 -23755961#1">
        <lane id=":1204940509_c0_0" index="0" allow="pedestrian" speed="1.00" length="6.40" width="4.00" shape="1169.74,716.63 1169.27,723.02"/>
    </edge>
    <edge id=":1204940509_w0" function="walkingarea">
        <lane id=":1204940509_w0_0" index="0" allow="pedestrian" speed="1.00" length="6.37" width="4.00" shape="1161.89,722.48 1161.75,724.48 1171.13,725.16 1171.27,723.16 1167.28,722.87"/>
    </edge>
    <edge id=":1204940509_w1" function="walkingarea">
        <lane id=":1204940509_w1_0" index="0" allow="pedestrian" speed="1.00" length="5.35" width="4.00" shape="1167.74,716.49 1171.73,716.78 1171.88,714.78 1170.56,713.19 1167.38,712.81 1167.38,712.81 1164.20,712.43 1162.49,714.11 1162.35,716.10"/>
    </edge>
    <edge id=":1204940520_0" function="internal">
        <lane id=":1204940520_0_0" index="0" disallow="pedestrian tram rail_urban rail rail_electric rail_fast ship" speed="8.33" length="9.40" shape="1212.09,698.67 1211.37,708.04"/>
    </edge>
    <edge id=":1204940520_1" function="internal">
        <lane id=":1204940520_1_0" index="0" allow="delivery bicycle" speed="5.56" length="4.56" shape="1212.09,698.67 1211.36,701.39 1210.18,702.67"/>
    </edge>
    <edge id=":1204940520_2" function="internal">
        <lane id=":1204940520_2_0" index="0" disallow="pedestrian tram rail_urban rail rail_electric rail_fast ship" speed="3.65" length="2.34" shape="1212.09,698.67 1211.20,699.81 1210.37,700.14"/>
    </edge>
    <edge id=":1204940520_9" function="internal">
        <lane id=":1204940520_9_0" index="0" allow="delivery bicycle" speed="5.56" length="7.30" shape="1210.18,702.67 1209.65,703.24 1206.97,704.21 1203.31,704.31"/>
    </edge>
    <edge id=":1204940520_10" function="internal">
        <lane id=":1204940520_10_0" index="0" disallow="pedestrian tram rail_urban rail rail_electric rail_fast ship" speed="3.65" length="2.34" shape="1210.37,700.14 1209.61,699.68 1208.90,698.43"/>
    </edge>
    <edge id=":1204940520_3" function="internal">
        <lane id=":1204940520_3_0" index="0" allow="delivery bicycle" speed="5.56" length="6.70" shape="1203.57,701.12 1205.81,701.11 1207.45,700.66 1208.48,699.76 1208.90,698.43"/>
    </edge>
    <edge id=":1204940520_4" function="internal">
        <lane id=":1204940520_4_0" index="0" allow="delivery bicycle" speed="5.56" length="11.81" shape="1203.57,701.12 1207.16,701.81 1209.66,703.19 1211.07,705.27 1211.37,708.04"/>
    </edge>
    <edge id=":1204940520_5" function="internal">
        <lane id=":1204940520_5_0" index="0" allow="pedestrian delivery bicycle" speed="2.78" length="4.67" shape="1203.57,701.12 1204.70,702.01 1205.03,702.84 1204.57,703.61 1203.31,704.31"/>
    </edge>
    <edge id=":1204940520_6" function="internal">
        <lane id=":1204940520_6_0" index="0" allow="delivery bicycle" speed="5.56" length="6.71" shape="1208.18,707.80 1207.97,706.43 1207.08,705.39 1205.53,704.68 1203.31,704.31"/>
    </edge>
    <edge id=":1204940520_7" function="internal">
        <lane id=":1204940520_7_0" index="0" disallow="pedestrian tram rail_urban rail rail_electric rail_fast ship" speed="8.33" length="9.40" shape="1208.18,707.80 1208.90,698.43"/>
    </edge>
    <edge id=":1204940520_8" function="internal">
        <lane id=":1204940520_8_0" index="0" disallow="pedestrian tram rail_urban rail rail_electric rail_fast ship" speed="3.65" length="2.34" shape="1208.18,707.80 1209.07,706.66 1209.90,706.32"/>
    </edge>
    <edge id=":1204940520_11" function="internal">
        <lane id=":1204940520_11_0" index="0" disallow="pedestrian tram rail_urban rail rail_electric rail_fast ship" speed="3.65" length="2.34" shape="1209.90,706.32 1210.67,706.78 1211.37,708.04"/>
    </edge>
    <edge id=":1204940520_c0" function="crossing" crossingEdges="35557161#6 -35557161#6">
        <lane id=":1204940520_c0_0" index="0" allow="pedestrian" speed="1.00" length="6.40" width="4.00" shape="1207.15,700.30 1213.53,700.79"/>
    </edge>
    <edge id=":1204940520_w0" function="walkingarea">
        <lane id=":1204940520_w0_0" index="0" allow="pedestrian" speed="1.00" length="6.37" width="4.00" shape="1212.97,708.16 1214.96,708.32 1215.68,698.94 1213.69,698.79 1213.38,702.78"/>
    </edge>
    <edge id=":1204940520_w1" function="walkingarea">
        <lane id=":1204940520_w1_0" index="0" allow="pedestrian" speed="1.00" length="5.31" width="4.00" shape="1207.00,702.29 1207.31,698.30 1205.31,698.15 1203.70,699.52 1203.44,702.71 1203.44,702.71 1203.17,705.90 1204.59,707.52 1206.59,707.68"/>
    </edge>
    <edge id=":1206481791_0" function="internal">
        <lane id=":1206481791_0_0" index="0" allow="delivery bicycle" speed="6.95" length="12.98" shape="898.69,1098.64 895.11,1099.20 892.94,1101.07 891.16,1103.57 888.76,1106.01"/>
    </edge>
    <edge id=":1206481791_1" function="internal">
        <lane id=":1206481791_1_0" index="0" disallow="pedestrian tram rail_urban rail rail_electric rail_fast ship" speed="8.33" length="12.74" shape="898.69,1098.64 885.99,1097.53"/>
    </edge>
    <edge id=":1206481791_2" function="internal">
        <lane id=":1206481791_2_0" index="0" disallow="pedestrian tram rail_urban rail rail_electric rail_fast ship" speed="3.65" length="2.34" shape="898.69,1098.64 897.55,1097.76 897.21,1096.93"/>
    </edge>
    <edge id=":1206481791_9" function="internal">
        <lane id=":1206481791_9_0" index="0" disallow="pedestrian tram rail_urban rail rail_electric rail_fast ship" speed="3.65" length="2.34" shape="897.21,1096.93 897.66,1096.16 898.92,1095.45"/>
    </edge>
    <edge id=":1206481791_3" function="internal">
        <lane id=":1206481791_3_0" index="0" disallow="pedestrian tram rail_urban rail rail_electric rail_fast ship" speed="8.33" length="12.69" shape="886.28,1094.34 898.92,1095.45"/>
    </edge>
    <edge id=":1206481791_4" function="internal">
        <lane id=":1206481791_4_0" index="0" allow="delivery bicycle" speed="6.95" length="8.00" shape="886.28,1094.34 892.70,1095.62 893.76,1096.60"/>
    </edge>
    <edge id=":1206481791_5" function="internal">
        <lane id=":1206481791_5_0" index="0" disallow="pedestrian tram rail_urban rail rail_electric rail_fast ship" speed="3.65" length="2.34" shape="886.28,1094.34 887.40,1095.24 887.73,1096.07"/>
    </edge>
    <edge id=":1206481791_10" function="internal">
        <lane id=":1206481791_10_0" index="0" allow="delivery bicycle" speed="6.95" length="12.65" shape="893.76,1096.60 895.26,1098.00 893.95,1101.46 888.76,1106.01"/>
    </edge>
    <edge id=":1206481791_11" function="internal">
        <lane id=":1206481791_11_0" index="0" disallow="pedestrian tram rail_urban rail rail_electric rail_fast ship" speed="3.65" length="2.34" shape="887.73,1096.07 887.26,1096.84 885.99,1097.53"/>
    </edge>
    <edge id=":1206481791_6" function="internal">
        <lane id=":1206481791_6_0" index="0" allow="delivery bicycle" speed="5.51" length="10.23" shape="886.92,1103.39 889.56,1101.09 890.29,1099.35 889.10,1098.16 885.99,1097.53"/>
    </edge>
    <edge id=":1206481791_7" function="internal">
        <lane id=":1206481791_7_0" index="0" allow="delivery bicycle" speed="6.95" length="15.03" shape="886.92,1103.39 889.50,1100.85 891.76,1098.14 894.59,1096.07 898.92,1095.45"/>
    </edge>
    <edge id=":1206481791_8" function="internal">
        <lane id=":1206481791_8_0" index="0" allow="pedestrian delivery bicycle" speed="3.65" length="4.67" shape="886.92,1103.39 888.37,1103.36 889.15,1103.78 889.28,1104.67 888.76,1106.01"/>
    </edge>
    <edge id=":1206481791_c0" function="crossing" crossingEdges="-4588217 4588217">
        <lane id=":1206481791_c0_0" index="0" allow="pedestrian" speed="1.00" length="6.40" width="4.00" shape="897.03,1093.71 896.58,1100.10"/>
    </edge>
    <edge id=":1206481791_w0" function="walkingarea">
        <lane id=":1206481791_w0_0" index="0" allow="pedestrian" speed="1.00" length="8.18" width="4.00" shape="885.85,1099.12 885.68,1101.11 885.99,1102.09 887.86,1104.69 887.83,1104.71 889.69,1107.31 898.43,1102.23 898.57,1100.24 894.58,1099.95"/>
    </edge>
    <edge id=":1206481791_w1" function="walkingarea">
        <lane id=":1206481791_w1_0" index="0" allow="pedestrian" speed="1.00" length="8.53" width="4.00" shape="895.04,1093.57 899.03,1093.85 899.17,1091.86 886.59,1090.75 886.42,1092.75"/>
    </edge>
    <edge id=":1206481808_0" function="internal">
        <lane id=":1206481808_0_0" index="0" allow="delivery bicycle" speed="6.95" length="10.58" shape="859.93,1103.08 858.84,1101.43 856.91,1098.60 854.91,1095.90 853.57,1094.67"/>
    </edge>
    <edge id=":1206481808_1" function="internal">
        <lane id=":1206481808_1_0" index="0" allow="delivery bicycle" speed="6.95" length="17.76" shape="859.93,1103.08 857.21,1098.00 857.16,1094.54 859.80,1092.70 865.12,1092.47"/>
    </edge>
    <edge id=":1206481808_2" function="internal">
        <lane id=":1206481808_2_0" index="0" allow="pedestrian delivery bicycle" speed="3.65" length="4.67" shape="859.93,1103.08 859.91,1101.64 860.34,1100.85 861.22,1100.73 862.56,1101.26"/>
    </edge>
    <edge id=":1206481808_3" function="internal">
        <lane id=":1206481808_3_0" index="0" allow="delivery bicycle" speed="5.41" length="9.04" shape="864.84,1095.66 862.25,1095.80 861.00,1096.77 861.11,1098.60 862.56,1101.26"/>
    </edge>
    <edge id=":1206481808_4" function="internal">
        <lane id=":1206481808_4_0" index="0" disallow="pedestrian tram rail_urban rail rail_electric rail_fast ship" speed="8.33" length="11.31" shape="864.84,1095.66 853.57,1094.67"/>
    </edge>
    <edge id=":1206481808_5" function="internal">
        <lane id=":1206481808_5_0" index="0" disallow="pedestrian tram rail_urban rail rail_electric rail_fast ship" speed="3.65" length="2.34" shape="864.84,1095.66 863.71,1094.76 863.39,1093.93"/>
    </edge>
    <edge id=":1206481808_9" function="internal">
        <lane id=":1206481808_9_0" index="0" disallow="pedestrian tram rail_urban rail rail_electric rail_fast ship" speed="3.65" length="2.34" shape="863.39,1093.93 863.85,1093.17 865.12,1092.47"/>
    </edge>
    <edge id=":1206481808_6" function="internal">
        <lane id=":1206481808_6_0" index="0" disallow="pedestrian tram rail_urban rail rail_electric rail_fast ship" speed="8.33" length="11.31" shape="853.85,1091.48 865.12,1092.47"/>
    </edge>
    <edge id=":1206481808_7" function="internal">
        <lane id=":1206481808_7_0" index="0" allow="delivery bicycle" speed="6.95" length="3.13" shape="853.85,1091.48 855.18,1092.16 856.35,1093.31"/>
    </edge>
    <edge id=":1206481808_8" function="internal">
        <lane id=":1206481808_8_0" index="0" disallow="pedestrian tram rail_urban rail rail_electric rail_fast ship" speed="3.65" length="2.34" shape="853.85,1091.48 854.98,1092.38 855.31,1093.22"/>
    </edge>
    <edge id=":1206481808_10" function="internal">
        <lane id=":1206481808_10_0" index="0" allow="delivery bicycle" speed="6.95" length="10.11" shape="856.35,1093.31 857.08,1094.02 859.54,1097.05 862.56,1101.26"/>
    </edge>
    <edge id=":1206481808_11" function="internal">
        <lane id=":1206481808_11_0" index="0" disallow="pedestrian tram rail_urban rail rail_electric rail_fast ship" speed="3.65" length="2.34" shape="855.31,1093.22 854.84,1093.98 853.57,1094.67"/>
    </edge>
    <edge id=":1206481808_c0" function="crossing" crossingEdges="-874528353#0 874528353#0">
        <lane id=":1206481808_c0_0" index="0" allow="pedestrian" speed="1.00" length="6.40" width="4.00" shape="863.27,1090.71 862.71,1097.08"/>
    </edge>
    <edge id=":1206481808_w0" function="walkingarea">
        <lane id=":1206481808_w0_0" index="0" allow="pedestrian" speed="1.00" length="6.61" width="4.00" shape="853.43,1096.26 853.26,1098.26 858.61,1103.99 861.25,1102.17 861.25,1102.17 863.88,1100.35 864.52,1099.25 864.70,1097.26 860.71,1096.90"/>
    </edge>
    <edge id=":1206481808_w1" function="walkingarea">
        <lane id=":1206481808_w1_0" index="0" allow="pedestrian" speed="1.00" length="7.64" width="4.00" shape="861.28,1090.53 865.26,1090.88 865.44,1088.89 854.17,1087.90 853.99,1089.89"/>
    </edge>
    <edge id=":1208647642_w0" function="walkingarea">
        <lane id=":1208647642_w0_0" index="0" allow="pedestrian" speed="1.00" length="4.03" width="2.00" shape="1230.99,1320.43 1231.16,1318.44 1226.16,1318.04 1226.01,1320.03 1227.38,1321.64 1229.37,1321.81 1230.51,1320.43 1230.12,1320.51 1229.82,1320.69 1229.60,1320.96 1229.45,1321.33"/>
    </edge>
    <edge id=":1208647678_w0" function="walkingarea">