<?xml version="1.0" encoding="UTF-8"?>

<!-- generated on Fri Aug  6 19:52:30 2021 by Eclipse SUMO duarouter Version 1.9.0
<configuration xmlns:xsi="http://www.w3.org/2001/XMLSchema-instance" xsi:noNamespaceSchemaLocation="http://sumo.dlr.de/xsd/duarouterConfiguration.xsd">

    <input>
        <net-file value="/Users/karolinabogacka/config-smaller-berlin/osm.net.xml"/>
        <additional-files value="/Users/karolinabogacka/config-smaller-berlin/osm_stops.add.xml,/Users/karolinabogacka/config-smaller-berlin/osm_pt.rou.xml"/>
        <route-files value="/Users/karolinabogacka/config-smaller-berlin/osm.pedestrian.trips.xml"/>
    </input>

    <output>
        <output-file value="/Users/karolinabogacka/config-smaller-berlin/osm.pedestrian.rou.xml"/>
        <alternatives-output value="/Users/karolinabogacka/config-smaller-berlin/osm.pedestrian.rou.alt.xml"/>
    </output>

    <time>
        <begin value="0"/>
        <end value="3600"/>
    </time>

    <report>
        <no-warnings value="true"/>
        <ignore-errors value="true"/>
        <no-step-log value="true"/>
    </report>

</configuration>
-->

<routes xmlns:xsi="http://www.w3.org/2001/XMLSchema-instance" xsi:noNamespaceSchemaLocation="http://sumo.dlr.de/xsd/routes_file.xsd">
    <vType id="ped_pedestrian" vClass="pedestrian"/>
    <person id="ped0" type="ped_pedestrian" depart="0.00">
        <walk edges="442389818#7 803471187 169195795#5 169195795#4" busStop="271296293"/> <!-- Staatsoper -->
        <ride busStop="271373068" lines="100:0" intended="pt_bus_100:0.0" depart="170.00"/> <!-- S+U Brandenburger Tor -->
        <walk edges="24913304#3 24913304#2 -4402037 -930343902 -24242892#0 -153698413"/>
    </person>
    <person id="ped1" type="ped_pedestrian" depart="4.09">
        <walk edges="153698394#1 4412868 11483007#0 158023913#4 158023913#2 158023913#0 -930343901#2"/>
    </person>
    <person id="ped2" type="ped_pedestrian" depart="8.18">
        <walk edges="4773025 121717657#1 121717657#0 61584187#4 54048863 15971197#0 628330913 339201217#0 251884680 4611694 305153174 54781811#1 54781811#0 4611696#1 831860725#0 -734578686 -15973619#0 -15973619#1 -15973619#2 -15973619#3 -15973619#4 -15973619#5 -15973619#6 -15973619#7 -15973619#8 15973619#9 -24509317#1 -24509317#0 4611714#4"/>
    </person>
    <person id="ped3" type="ped_pedestrian" depart="12.27">
        <walk edges="85255870#0 335462916 -4401967#2 -335462874#2 -326116285#2 -326116285#1 -4402014#3 -4402014#2 4588220#0 -292429056#2"/>
    </person>
    <person id="ped4" type="ped_pedestrian" depart="16.36">
        <walk edges="23755961#1 23755961#2 4611711#0 4611711#1 4611714#0 -4611714#1 4611718#1 4611718#0 -15973619#9 -15973619#10"/>
    </person>
    <person id="ped6" type="ped_pedestrian" depart="24.54">
        <walk edges="-158023913#2 158023913#4 11483007#0 4412868 -153698394#4 66071373#1 243854725#4 -24242882#1 -24242882#2 -24242882#3 32508498 205728152#3 803471185 -68647306#1"/>
    </person>
    <person id="ped7" type="ped_pedestrian" depart="28.63">
        <walk edges="4597326 -710761407#4 465626395#0 303084360#1 82488125#1 43348945#2" busStop="29495047"/> <!-- U Mohrenstraße -->
        <ride busStop="-29495041" lines="U2:1" intended="pt_subway_U2:1.0" depart="525.00"/> <!-- U Hausvogteiplatz -->
        <walk edges="-4611710#0 315255210 -315255206 4611708#1 4611708#0 35557161#1 35557161#0"/>
    </person>
    <person id="ped8" type="ped_pedestrian" depart="32.72">
        <walk edges="-884209962#2 -22972470#3 -22972470#2 -22972470#1 389101395#2 389101381"/>
    </person>
    <person id="ped9" type="ped_pedestrian" depart="36.81">
        <walk edges="665241888#1 -665241888#0 199847252#2 199847247#1" busStop="4940781828"/> <!-- U Stadtmitte -->
        <ride busStop="8170794617" lines="U6:0" intended="pt_subway_U6:0.0" depart="500.00"/> <!-- U Unter den Linden -->
        <walk edges="340498988#0 169999355#0 -11483007#2"/>
    </person>
    <person id="ped10" type="ped_pedestrian" depart="40.90">
        <walk edges="66071366#1 66071366#0 -389101365#4 -389101365#2 -35557143#4 463898981#0"/>
    </person>
    <person id="ped11" type="ped_pedestrian" depart="44.99">
        <walk edges="196850606#4 196850606#2 196850606#1 196850606#0 196850607#0 196850607#1 196850607#2 42102542#1 42102542#0 35557143#1" busStop="3869306767"/> <!-- Französische Straße -->
        <ride busStop="3869306774" lines="147:0" intended="pt_bus_147:0.0" depart="631.00"/> <!-- Werderscher Markt -->
        <walk edges="23755950#0 23755950#1 23755950#2 -4611693#4"/>
    </person>
    <person id="ped13" type="ped_pedestrian" depart="53.17">
        <walk edges="-303084351#1 -303084351#0 43348945#2 191556835#0 191556835#1 -47755711#2 -47755711#1 -47755711#0 47707171#0 47707171#1 47707171#2 47707171#4 47707171#5 47707171#6 47707171#7 -24997595#1 24997595#0 465637606 766868097 698628822#0 698628824#2 698628824#3 698628824#4 346240656#1 346240656#2 346240655 766868088 35557161#2 35557161#1 35557161#0 4611706#1 4611706#0 -32508498"/>
    </person>
    <person id="ped15" type="ped_pedestrian" depart="61.35">
        <walk edges="66071366#3 4611713#0 4611713#1 23017853 -23017852#0 4611710#0" busStop="2098466936"/> <!-- U Hausvogteiplatz -->
        <ride busStop="2182805355" lines="U2:0" intended="pt_subway_U2:0.0" depart="448.00"/> <!-- U Stadtmitte -->
        <walk edges="24997595#1 47707171#7 47707171#6 47707171#5 47707171#4 47707171#2 47707171#1"/>
    </person>
    <person id="ped16" type="ped_pedestrian" depart="65.44">
        <walk edges="346240656#3 346240656#4 766868087#2 766868087#3 766868086 -22972473#2 -35557143#4 196850609#0 196850609#1 196850609#2 4588217 874528353#0 874528353#1 874528353#2 24913267#3 24913267#0 373292157#3 915958605#2 915958602#1 915958606#1"/>
    </person>
    <person id="ped17" type="ped_pedestrian" depart="69.52">
        <walk edges="199847288#0 346240653#1 47707170#0 24997595#1 -24997595#0 389101373#1 389101373#2 23755961#0 23755961#1 23755961#2 4611711#0 4611711#1 4611714#0 4611714#1 4611714#2 4611714#3 4611714#4 4611714#5 4611714#6 4611714#7 4611714#8 4611714#9 4611714#10 371296400#1 371296400#0"/>
    </person>
    <person id="ped18" type="ped_pedestrian" depart="73.61">
        <walk edges="699041686#2 31609479 -377215961#0 -377215961#2 -168937986#1 -4610524 66071379#1 66071370 4611713#0 4611713#1 4611714#0 4611714#1 4611714#2 4611714#3 4611714#4 4611714#5 4611714#6 4611714#7 4611714#8 4611714#9 4611714#10 371296400#1 371296399 541763977#1 375311154#7 411611605#1"/>
    </person>
    <person id="ped20" type="ped_pedestrian" depart="81.79">
        <walk edges="465626386#1 199847275 199847284 526093508#1 526093508#2 199847263 199847278 481651816 481651817#0 199847252#2 196850606#7 196850606#6 47707171#4 47707171#2 47707171#1 47707171#0 -47755711#0 -47755711#1 -47755711#2 191556835#1 191556835#0 109902441#1 109902441#0 681299268 47935842 -326116285#1 326116285#2 -327735417 -195088658#1 -195088658#0"/>
    </person>
    <person id="ped21" type="ped_pedestrian" depart="85.88">
        <walk edges="104567844 4588217 171423001#0 171423001#1 171423001#2 463898980#7 463898980#6 35557143#1" busStop="3869306767"/> <!-- Französische Straße -->
        <ride busStop="3869306774" lines="147:0" intended="pt_bus_147:0.0" depart="631.00"/> <!-- Werderscher Markt -->
        <walk edges="23755950#0 23755950#1 23755950#2 -831860725#2 -734578686 -15973619#0 -15973619#1 -15973619#2 -15973619#3 -15973619#4 -15973619#5 -15973619#6 -15973619#7 -15973619#8 -15973619#9 -15973619#10 -15973619#11 -15973619#12 15973619#13"/>
    </person>
    <person id="ped22" type="ped_pedestrian" depart="89.97">
        <walk edges="-24509317#0 -24509317#1 15973619#9 -15973619#8 -15973619#7 -15973619#6 -15973619#5 -15973619#4 -15973619#3 -15973619#2 -15973619#1 -15973619#0 -734578686 831860725#0 4611696#1 54781811#0 54781811#1 305153174 4611694 251884680 339201217#0 628330913 15971197#0 54048863 61584187#4 121717657#0 121717657#1 121717657#2 121717657#3 924828181 15968749#3 104984532"/>
    </person>
    <person id="ped24" type="ped_pedestrian" depart="98.15">
        <walk edges="442389818#1 442389818#2 442389818#3 803471190#0 354528932#0 354528932#1 -4611694" busStop="7974928190"/> <!-- U Museumsinsel -->
        <ride busStop="253846340" lines="U5:1" intended="pt_subway_U5:1.0" depart="473.00"/> <!-- U Brandenburger Tor -->
        <walk edges="915958593#2" busStop="7057285550"/> <!-- U Brandenburger Tor -->
        <walk edges="317859982#4" busStop="4946539237"/> <!-- S Brandenburger Tor -->
        <walk edges="27016828 4401967#0" busStop="3862767501"/> <!-- Behrenstraße/Wilhelmstraße -->
        <ride busStop="272441720" lines="300:0" intended="pt_bus_300:0.0" depart="925.00"/> <!-- U Mohrenstraße -->
        <walk edges="335462921#1 303084360#6 554839171#1 197160273#1"/>
    </person>
    <person id="ped25" type="ped_pedestrian" depart="102.24">
        <walk edges="199847265 199847258 199847262 199847257 143385452 199847281#1 199847288#2 199847288#1 199847288#0 465637623 303084359#5 303084359#6 196850606#2 196850606#1 196850606#0 196850607#0 196850607#1 196850607#2 42102542#1 42102542#0 35557143#1" busStop="3869306767"/> <!-- Französische Straße -->
        <ride busStop="3869306774" lines="147:0" intended="pt_bus_147:0.0" depart="631.00"/> <!-- Werderscher Markt -->
        <walk edges="23755950#0 23755950#1 23755950#2 4611696#1 4611696#4 4611696#5 -8008608"/>
    </person>
    <person id="ped26" type="ped_pedestrian" depart="106.33">
        <walk edges="147066248#6 -147066248#7 -147066248#8 4611708#3 4611708#2 4611708#1 4611708#0 35557161#1 346240658#1 699041692#2 699041692#1 389102304 -389101365#2 -35557143#4" busStop="-5824647400"/> <!-- Französische Straße -->
        <ride busStop="3869306772" lines="147:1" intended="pt_bus_147:1.0" depart="684.00"/> <!-- U Unter den Linden -->
        <walk edges="169999355#0 882389496#0 882389496#1 915958586 881245039 883691541#4 883691541#3"/>
    </person>
    <person id="ped27" type="ped_pedestrian" depart="110.42">
        <walk edges="4597325#0 -4597325#0 -4597325#1 -4597325#2 -710761407#2 -710761407#0 -85255869#2 -85255870#2 -335462916 -4401967#2 -335462874#2" busStop="-4692172068"/> <!-- Behrenstraße/Wilhelmstraße -->
        <ride busStop="3870475228" lines="300:1" intended="pt_bus_300:1.0" depart="732.00"/> <!-- Staatsoper -->
        <walk edges="340498982#4 340498982#3 340498982#2 38211708#0 38211708#1 114667396#0 463829477#1 -410310755#2 -410310755#4 410310755#6"/>
    </person>
    <person id="ped28" type="ped_pedestrian" depart="114.51">
        <walk edges="-4611714#11 -4611714#10 4611714#9 4611714#8 4611714#7 4611714#6 4611714#5 4611714#4 4611714#3 4611714#2 4611714#1 4611714#0 -23017853 -23017852#0 4611710#0" busStop="2098466936"/> <!-- U Hausvogteiplatz -->
        <ride busStop="2182805355" lines="U2:0" intended="pt_subway_U2:0.1" depart="688.00"/> <!-- U Stadtmitte -->
        <walk edges="24997595#1 47707171#7 47707171#6 47707171#5 47707171#4 47707171#2 47707171#1"/>
    </person>
    <person id="ped29" type="ped_pedestrian" depart="118.60">
        <walk edges="-4611710#0 4611710#0" busStop="2098466936"/> <!-- U Hausvogteiplatz -->
        <ride busStop="2182805355" lines="U2:0" intended="pt_subway_U2:0.0" depart="448.00"/> <!-- U Stadtmitte -->
        <walk edges="24997595#1 47707170#0 346240653#1 199847288#0 199847288#1 199847288#2"/>
    </person>
    <person id="ped31" type="ped_pedestrian" depart="126.78">
        <walk edges="373292157#2 373292157#3 342968607#1 461526152#0"/>
    </person>
    <person id="ped32" type="ped_pedestrian" depart="130.87">
        <walk edges="744493888 158023913#2 158023913#4 11483007#0 -169999355#2 -194069450#2" busStop="-3869306770"/> <!-- U Unter den Linden -->
        <ride busStop="3869306774" lines="147:0" intended="pt_bus_147:0.0" depart="573.00"/> <!-- Werderscher Markt -->
        <walk edges="23755950#0 23755950#1 23755950#2 4611696#1 54781811#0"/>
    </person>
    <person id="ped33" type="ped_pedestrian" depart="134.96">
        <walk edges="104581979#0 104581979#1 158023913#4 11483007#0 -169999355#2 -194069450#2" busStop="-3869306770"/> <!-- U Unter den Linden -->
        <ride busStop="3869306774" lines="147:0" intended="pt_bus_147:0.0" depart="573.00"/> <!-- Werderscher Markt -->
        <walk edges="23755950#0 23755950#1 23755950#2 -831860725#2 -734578686 -15973619#0 -15973619#1 -15973619#2 -15973619#3 -15973619#4 -15973619#5 -15973619#6 -15973619#7 -15973619#8 -15973619#9 -15973619#10 -15973619#11 -15973619#12 -15973619#13"/>
    </person>
    <person id="ped35" type="ped_pedestrian" depart="143.14">
        <walk edges="-803471192#1 -377215961#0 -377215961#2 -168937986#1 354528932#0 354528932#1 -4611694" busStop="7974928190"/> <!-- U Museumsinsel -->
        <ride busStop="8090274121" lines="U5:1" intended="pt_subway_U5:1.0" depart="473.00"/> <!-- U Unter den Linden -->
        <walk edges="171423002#0 -194069450#2 -882389497" busStop="8170769020"/> <!-- U Unter den Linden -->
        <ride busStop="2182805353" lines="U6:1" intended="pt_subway_U6:1.1" depart="780.00"/> <!-- U Stadtmitte -->
        <walk edges="199847247#1 199847252#2 -840229273 -375459783#0 -22972470#2 -22972470#3 884209967#0 884209965#1 884209966#0"/>
    </person>
    <person id="ped36" type="ped_pedestrian" depart="147.23">
        <walk edges="803471192#1 803471194#2 699041686#1 699041686#0 -330840134#2 340498976#8 340498976#6 340498976#3 463829477#1 83517336#4 -153698394#1 -153698394#4 171423002#6"/>
    </person>
    <person id="ped37" type="ped_pedestrian" depart="151.32">
        <walk edges="4610600 4610525#0 4610525#1 4610525#2 4610525#3 4611699 15971197#1 628330913 339201217#0" busStop="7974928190"/> <!-- U Museumsinsel -->
        <ride busStop="8090274121" lines="U5:1" intended="pt_subway_U5:1.0" depart="473.00"/> <!-- U Unter den Linden -->
        <walk edges="882389496#1 882389496#0 -169999355#2 -11483007#2 22972195#2"/>
    </person>
    <person id="ped38" type="ped_pedestrian" depart="155.41">
        <walk edges="882389481 882389499#2 882389499#1 881245042 882389498 915958617 915958620#3 171423002#1 194069450#0 882389497 4588217 874528353#0 874528353#1 874528353#2 4588220#0 168935756#0 -753316505#2 168935757#0 82488124#0 303084358#2 303084358#3 303084356"/>
    </person>
    <person id="ped39" type="ped_pedestrian" depart="159.50">
        <walk edges="147066248#3 482809610 15973619#5 15973619#4 15973619#3 15973619#2 15973619#1 15973619#0 -734578686 831860725#0 4611696#1 54781811#0 54781811#1 305153174 4611694 251884680 339201217#0 628330913 15971197#0 54048863 61584187#4 121717657#0 121717657#1 121717657#2 121717657#3"/>
    </person>
    <person id="ped40" type="ped_pedestrian" depart="163.59">
        <walk edges="375311153#0 -4611712 4611711#0 4611711#1 4611714#0 -4611714#1 4611718#1 147066248#0"/>
    </person>
    <person id="ped41" type="ped_pedestrian" depart="167.68">
        <walk edges="389101373#1 -22972473#5 -22972473#4 -22972473#3 -22972473#2 -243854725#2 -243854725#3 -243854725#4 -66071373#3 461526152#0" busStop="8087330616"/> <!-- U Unter den Linden -->
        <ride busStop="7974955393" lines="U5:0" intended="pt_subway_U5:0.1" depart="737.00"/> <!-- U Museumsinsel -->
        <walk edges="868590781#1 868590783"/>
    </person>
    <person id="ped42" type="ped_pedestrian" depart="171.77">
        <walk edges="22972473#4 22972473#3 22972473#0 -35557143#4 196850609#0 196850609#1 196850609#2 -4588217 -874528353#0 -874528353#1 -874528353#4"/>
    </person>
    <person id="ped44" type="ped_pedestrian" depart="179.95">
        <walk edges="-292429063 -292429062#3 -292429062#2 -292429062#1 -292429062#0 -153698380#2 373292157#0 373292157#1 373292157#2 373292157#3 24913267#0 24913267#3 4402014#0 4402014#3 326116285#0 326116285#2 -327735417 -195088658#1 -195088659#0"/>
    </person>
    <person id="ped45" type="ped_pedestrian" depart="184.04">
        <walk edges="-340498976#10 340498976#10 -330840134#2 699041686#0 699041686#1 803471194#2 803471194#1 -4610527 -377215961#2 -168937986#1 169195795#0 169195795#1 169195795#4" busStop="271296293"/> <!-- Staatsoper -->
        <ride busStop="272441720" lines="300:0" intended="pt_bus_300:0.0" depart="722.00"/> <!-- U Mohrenstraße -->
        <walk edges="335462921#1 43348945#1 43348945#2"/>
    </person>
    <person id="ped46" type="ped_pedestrian" depart="188.13">
        <walk edges="596826981#1 596826981#0 596826980#4 596826980#5 -4597325#1 -4597325#2 -710761407#4 465626395#0 303084360#1 82488125#1 43348945#2" busStop="29495047"/> <!-- U Mohrenstraße -->
        <ride busStop="524657889" lines="U2:1" intended="pt_subway_U2:1.1" depart="765.00"/> <!-- U Stadtmitte -->
        <walk edges="-24997595#0 389101373#1 389101373#2 23755961#0 23755961#1"/>
    </person>
    <person id="ped47" type="ped_pedestrian" depart="192.22">
        <walk edges="-23121445#1 23121445#2 23121445#3 4773026#1 202157027#2"/>
    </person>
    <person id="ped48" type="ped_pedestrian" depart="196.31">
        <walk edges="942234135 -410310755#8 340498976#6 340498976#8 -330840134#2 699041686#0 699041686#1 803471194#2 803471194#1 -4610527 -377215961#2 -168937986#1 340498982#9"/>
    </person>
    <person id="ped49" type="ped_pedestrian" depart="200.39">
        <walk edges="915958605#2 373292157#3 342968607#1 -194069450#2 -882389497" busStop="8170769020"/> <!-- U Unter den Linden -->
        <ride busStop="2182805353" lines="U6:1" intended="pt_subway_U6:1.0" depart="480.00"/> <!-- U Stadtmitte -->
        <walk edges="199847247#1 199847252#2 196850606#7 196850606#6 47707171#5 47707171#6 47707171#7 -24997595#1 24997595#0 465637606 766868097"/>
    </person>
    <person id="ped50" type="ped_pedestrian" depart="204.48">
        <walk edges="-132460632#0 132460632#0" busStop="-247603398"/> <!-- Am Kupfergraben -->
        <walk edges="340498976#10 -330840134#2 699041686#0 699041686#1 803471194#2 803471194#1 -4610527 -377215961#2 -168937986#1 169195795#0 169195795#1 169195795#4" busStop="271296293"/> <!-- Staatsoper -->
        <ride busStop="3862767501" lines="300:0" intended="pt_bus_300:0.0" depart="722.00"/> <!-- Behrenstraße/Wilhelmstraße -->
        <walk edges="4401967#0 335462916 85255870#0 327941679#0 596826976#1 596826980#3 596826980#4 596826979#0 596826979#1 47423545#2 47423542#4"/>
    </person>
    <person id="ped51" type="ped_pedestrian" depart="208.57">
        <walk edges="4611716#1 4611716#0 147029844 4611712 23017852#3 23017852#2 23017852#1 23017852#0" busStop="-29495041"/> <!-- U Hausvogteiplatz -->
        <walk edges="-4611710#0 -4611710#1 -4611710#2 35557161#3 766868088 346240655 346240656#3 346240656#4"/>
    </person>
    <person id="ped52" type="ped_pedestrian" depart="212.66">
        <walk edges="147066248#6 482809615 15973619#1 15973619#0 734578686 -831860725#2 23755950#2 -23755950#1 -23755950#0" busStop="-3869306773"/> <!-- Werderscher Markt -->
        <ride busStop="3869306772" lines="147:1" intended="pt_bus_147:1.0" depart="591.00"/> <!-- U Unter den Linden -->
        <walk edges="169999355#0 188386313#1 188386313#2 153698380#0 -292429062#0 -292429062#1 327519011#2 327519011#1 327519011#0 327519012#7 327519007 -930343901#3 456400037#0"/>
    </person>
    <person id="ped53" type="ped_pedestrian" depart="216.75">
        <walk edges="-340498976#6 340498976#8 -330840134#2 699041686#0 699041686#1 803471194#2 803471194#1 -4610527 -377215961#2 -168937986#1 -66071379#0 -474362271 -43231842#3 -546927052 -23755950#1 23755950#2 -831860725#2 -734578686 -15973619#0 -15973619#1 -15973619#2 -15973619#3 -15973619#4 -15973619#5 -15973619#6 -15973619#7 -15973619#8 -15973619#9 24509317#1"/>
    </person>
    <person id="ped55" type="ped_pedestrian" depart="224.93">
        <walk edges="803471192#0 -4610527 -377215961#2 -168937986#1 -66071379#0 -474362271 -43231842#3 -546927052 -23755950#1 23755950#2 -831860725#2 734578686 15973619#0 15973619#1 15973619#2 15973619#3 15973619#4 15973619#5 15973619#6 482809611 147066248#1"/>
    </person>
    <person id="ped56" type="ped_pedestrian" depart="229.02">
        <walk edges="327519012#1 327519012#2 327519011#2 -292429062#1 -292429062#0 153698380#0 342968607#1 461526152#0" busStop="3869306771"/> <!-- U Unter den Linden -->
        <ride busStop="3870475228" lines="100:1" intended="pt_bus_100:1.1" depart="765.00"/> <!-- Staatsoper -->
        <walk edges="340498982#4 340498982#5 340498982#8 340498982#9 -4610524 -474362271"/>
    </person>
    <person id="ped57" type="ped_pedestrian" depart="233.11">
        <walk edges="881611350 882389480 882389499#2 882389499#3 882389499#4 915958595 915958620#1" busStop="8087330616"/> <!-- U Unter den Linden -->
        <walk edges="461526152#0 -66071373#3 -243854725#4 -24242882#1 -24242882#2 -24242882#3 32508498 205728152#3 803471185"/>
    </person>
    <person id="ped58" type="ped_pedestrian" depart="237.20">
        <walk edges="168935757#0 -753316505#2 168935756#0 4588220#0 874528353#2 874528353#1 874528353#0 4588217 882389497 194069450#0 461526152#0" busStop="3869306771"/> <!-- U Unter den Linden -->
        <ride busStop="3870475228" lines="300:1" intended="pt_bus_300:1.0" depart="885.00"/> <!-- Staatsoper -->
        <walk edges="340498982#4 699041690 169195795#4 803471188#0 442389818#6"/>
    </person>
    <person id="ped59" type="ped_pedestrian" depart="241.29">
        <walk edges="410310755#4 -410310755#6 -410310755#8 340498976#6 340498976#8 -330840134#2 699041686#0 699041686#1 803471194#2 803471194#1 -4610527"/>
    </person>
    <person id="ped60" type="ped_pedestrian" depart="245.38">
        <walk edges="526093508#2 199847263 199847278 481651816 481651817#0 199847252#2 196850606#7 196850606#6 47707171#4 47707171#2 47707171#1 346240666#0 346240659"/>
    </person>
    <person id="ped61" type="ped_pedestrian" depart="249.47">
        <walk edges="55494203 43230873#1 4611694" busStop="7974928190"/> <!-- U Museumsinsel -->
        <ride busStop="8090274121" lines="U5:1" intended="pt_subway_U5:1.0" depart="473.00"/> <!-- U Unter den Linden -->
        <walk edges="171423002#0 342968607#1"/>
    </person>
    <person id="ped62" type="ped_pedestrian" depart="253.56">
        <walk edges="-105747086 35557161#5 803471182 698628824#0 698628824#1 698628824#2 698628824#3 698628823 766868090#3 766868089 -22972473#3 -22972473#2 -35557143#4" busStop="-5824647400"/> <!-- Französische Straße -->
        <ride busStop="3869306772" lines="147:1" intended="pt_bus_147:1.0" depart="684.00"/> <!-- U Unter den Linden -->
        <walk edges="169999355#0 188386313#1"/>
    </person>
    <person id="ped63" type="ped_pedestrian" depart="257.65">
        <walk edges="-147066248#6 482809615 15973619#1 15973619#0 734578686 -831860725#2 23755950#2 -23755950#1 -23755950#0" busStop="-3869306773"/> <!-- Werderscher Markt -->
        <ride busStop="3869306772" lines="147:1" intended="pt_bus_147:1.0" depart="591.00"/> <!-- U Unter den Linden -->
        <walk edges="169999355#0 171423002#1 915958620#3 915958617 882389498"/>
    </person>
    <person id="ped64" type="ped_pedestrian" depart="261.74">
        <walk edges="803471195#1 803471195#2 -377215961#2 -168937986#1 169195795#0 169195795#1 169195795#4 699041690"/>
    </person>
    <person id="ped65" type="ped_pedestrian" depart="265.83">
        <walk edges="169999355#0 340498988#0 882389494 66071373#1 243854725#4 243854725#3 243854725#0 -22972473#2 -22972473#3 -22972473#4"/>
    </person>
    <person id="ped66" type="ped_pedestrian" depart="269.92">
        <walk edges="803471194#2 803471194#1 -4610527 -377215961#2 -168937986#1 169195795#0 169195795#1 -28251222#1 -28251222#0 -68647306#6 32508516#1 260425593 260426116 -4611706#1 35557161#0 35557161#1 35557161#2 35557161#3 35557161#4 35557161#5 35557161#6 375311158#0 375311158#1 884209959 884209967#3"/>
    </person>
    <person id="ped67" type="ped_pedestrian" depart="274.01">
        <walk edges="-28251222#1 340498982#5 340498982#4 340498982#3 340498982#2 340498982#0 461526152#0 342968607#1 236092221#3 236092221#2 132600840#1 317859982#3"/>
    </person>
    <person id="ped68" type="ped_pedestrian" depart="278.10">
        <walk edges="-23755739#4 47935842 4402014#3 195088844 -195089288#2 -195089504 236092221#2 132600840#1 132600840#0 24913304#2 231716563#0 519273957"/>
    </person>
    <person id="ped69" type="ped_pedestrian" depart="282.19">
        <walk edges="54048862#1 54048862#0 15971196 339201217#1 339201217#0 251884680 4611694 305153174 54781811#1 54781811#0 4611696#1 831860725#0 -389101385"/>
    </person>
    <person id="ped70" type="ped_pedestrian" depart="286.28">
        <walk edges="303084360#4 303084360#1 465626395#0 -710761407#4 -710761407#2 -710761407#0 -85255869#2 -85255870#2 -335462916 -4401967#2 -335462874#2" busStop="-4692172068"/> <!-- Behrenstraße/Wilhelmstraße -->
        <ride busStop="3869306771" lines="300:1" intended="pt_bus_300:1.0" depart="732.00"/> <!-- U Unter den Linden -->
        <walk edges="461526152#0 169999355#0 -11483007#2 83517336#0 35578576#0"/>
    </person>
    <person id="ped71" type="ped_pedestrian" depart="290.37">
        <walk edges="147066248#3 -147066248#4 -147066248#5 -147066248#6 -147066248#7 -147066248#8 4611708#3 -4611713#0 66071370 66071379#1 -4610524 169195795#0 169195795#1 803471188#0"/>
    </person>
    <person id="ped72" type="ped_pedestrian" depart="294.46">
        <walk edges="23755961#2 4611711#0 4611711#1 -4611713#1 -4611708#3 -4611708#4 -831860725#2"/>
    </person>
    <person id="ped73" type="ped_pedestrian" depart="298.55">
        <walk edges="346240659 346240666#0 47707171#1 47707171#2"/>
    </person>
    <person id="ped74" type="ped_pedestrian" depart="302.64">
        <walk edges="-68647306#5 -68647306#4 -68647306#3 -68647306#2 803471185 205728152#3 32508498 -24242882#3 -24242882#2 -24242882#1 -243854725#4 -66071373#3 461526152#0 171423002#1 171423002#2"/>
    </person>
    <person id="ped75" type="ped_pedestrian" depart="306.73">
        <walk edges="942234133#0 -410310755#4 -410310755#2 463829477#1 114667396#0 169195795#7 169195795#6 169195795#5 169195795#4" busStop="271296293"/> <!-- Staatsoper -->
        <ride busStop="271373068" lines="100:0" intended="pt_bus_100:0.1" depart="770.00"/> <!-- S+U Brandenburger Tor -->
        <walk edges="24913304#3" busStop="253846340"/> <!-- U Brandenburger Tor -->
        <walk edges="915958593#2" busStop="7057285550"/> <!-- U Brandenburger Tor -->
        <walk edges="317859982#4" busStop="4946539237"/> <!-- S Brandenburger Tor -->
        <walk edges="27016828 -4401967#2 -335462916 -85255870#2 -85255869#2 -710761407#0 -710761407#2 4597326"/>
    </person>
    <person id="ped76" type="ped_pedestrian" depart="310.82">
        <walk edges="24913304#1 373292157#0 373292157#1 373292157#2 373292157#3 24913267#0 24913267#3 4402014#0 4402014#3 326116285#0 326116285#2 326116285#3 4401967#0" busStop="3862767501"/> <!-- Behrenstraße/Wilhelmstraße -->
        <ride busStop="272441720" lines="300:0" intended="pt_bus_300:0.0" depart="925.00"/> <!-- U Mohrenstraße -->
        <walk edges="335462921#1"/>
    </person>
    <person id="ped77" type="ped_pedestrian" depart="314.91">
        <walk edges="-375311158#2 -375311158#0 -375459782#0 -375459782#1 -375459783#0 -840229273 199847252#2 199847247#1" busStop="4940781828"/> <!-- U Stadtmitte -->
        <ride busStop="8170794617" lines="U6:0" intended="pt_subway_U6:0.1" depart="800.00"/> <!-- U Unter den Linden -->
        <walk edges="882389496#0 188386313#1 188386313#2 153698380#0 -292429062#0 -292429062#1 327519011#2 327519011#1 327519011#0 327519012#7 327519007 -930343901#3 -930343901#4"/>
    </person>
    <person id="ped78" type="ped_pedestrian" depart="319.00">
        <walk edges="195411604 11483007#0 -169999355#2 -194069450#2" busStop="-3869306770"/> <!-- U Unter den Linden -->
        <ride busStop="3869306767" lines="147:0" intended="pt_bus_147:0.0" depart="573.00"/> <!-- Französische Straße -->
        <walk edges="35557143#1 389101365#0 389102304 699041692#1 699041692#2 346240658#1 35557161#1 35557161#2 -35557161#3 4611710#2 389101392 389101379"/>
    </person>
    <person id="ped79" type="ped_pedestrian" depart="323.09">
        <walk edges="104786912#0 104786912#3 32786909 442389818#7 803471187 169195795#6 169195795#7 169195795#9 66071373#1 243854725#4 243854725#3 243854725#0 -22972473#2 -22972473#3 -22972473#4 -22972473#5 -22972470#1 -22972470#2 -22972470#3 -884209962#2"/>
    </person>
    <person id="ped80" type="ped_pedestrian" depart="327.18">
        <walk edges="-23755950#4 -4611696#3 54781811#0 54781811#1 305153174 4611694 251884680 339201217#0 628330913 15971197#0 54048863 61584187#4 121717657#0 121717657#1 121717657#2 121717657#3 924828181 15968749#3 104984532 437502564"/>
    </person>
    <person id="ped81" type="ped_pedestrian" depart="331.27">
        <walk edges="104581979#0 104581979#1 158023913#4 11483007#0 169999355#0 171423002#1 915958620#3 915958620#2 915958620#1" busStop="8087330616"/> <!-- U Unter den Linden -->
        <walk edges="882389489 881245043#0 881245043#1 881245043#2 881245043#3"/>
    </person>
    <person id="ped82" type="ped_pedestrian" depart="335.35">
        <walk edges="766868095#1 389101374 -23755961#0 -23755961#1 -23755961#2 -4611711#0 -4611711#1 4611713#1 -4611713#0 -23755950#0 -23755950#1 -23755950#4"/>
    </person>
    <person id="ped83" type="ped_pedestrian" depart="339.44">
        <walk edges="111833185#1 -169999355#2 -194069450#2" busStop="-3869306770"/> <!-- U Unter den Linden -->
        <ride busStop="3869306774" lines="147:0" intended="pt_bus_147:0.0" depart="573.00"/> <!-- Werderscher Markt -->
        <walk edges="23755950#0 -4611713#0 -4611713#1 4611711#1 4611711#0"/>
    </person>
    <person id="ped85" type="ped_pedestrian" depart="347.62">