<?xml version="1.0" encoding="UTF-8"?>

<!-- generated on Wed May 26 19:46:46 2021 by Eclipse SUMO polyconvert Version 1.9.0
<configuration xmlns:xsi="http://www.w3.org/2001/XMLSchema-instance" xsi:noNamespaceSchemaLocation="http://sumo.dlr.de/xsd/polyconvertConfiguration.xsd">

    <input>
        <net-file value="osm.net.xml"/>
        <osm-files value="osm_bbox.osm.xml"/>
        <osm.keep-full-type value="true"/>
        <type-file value="/usr/local/opt/sumo/share/sumo/data/typemap/osmPolyconvert.typ.xml"/>
    </input>

    <output>
        <output-file value="osm.poly.xml"/>
    </output>

    <processing>
        <poi-layer-offset value="5"/>
    </processing>

    <report>
        <verbose value="true"/>
    </report>

</configuration>
-->

<additional xmlns:xsi="http://www.w3.org/2001/XMLSchema-instance" xsi:noNamespaceSchemaLocation="http://sumo.dlr.de/xsd/additional_file.xsd">
    <location netOffset="-495144.85,-5775728.11" convBoundary="0.00,0.00,9314.89,17711.41" origBoundary="20.928815,52.132057,21.065155,52.291290" projParameter="+proj=utm +zone=34 +ellps=WGS84 +datum=WGS84 +units=m +no_defs"/>
    <parkingArea id="ParkAreaA" lane="119769123#1_1" startPos="200" endPos="250" friendlyPos="true" roadsideCapacity="50" name="parking" length="30"/>
    <poly id="106646320" type="leisure.park" color="207,245,201" fill="1" layer="-2.00" shape="4569.830260,10345.208237 4567.827090,10313.964656 4562.139534,10238.163717 4558.099091,10180.003310 4635.669333,10173.258902 4641.639434,10172.680261 4679.748978,10185.836929 4658.364094,10244.198589 4635.129084,10313.115882 4618.935995,10361.289092 4594.120179,10353.015040 4569.830260,10345.208237"/>
    <poly id="113069023" type="building.apartments" color="255,230,230" fill="1" layer="-1.00" shape="5231.557456,9599.103244 5218.597922,9598.968804 5218.467453,9608.078285 5217.871697,9627.298266 5219.285694,9629.155860 5247.937305,9628.423952 5247.931456,9616.044387 5232.095821,9616.588168 5231.323913,9615.798398 5231.557456,9599.103244"/>
    <poly id="113069025" type="building.apartments" color="255,230,230" fill="1" layer="-1.00" shape="5220.699868,9536.036730 5219.508763,9568.537167 5233.711720,9568.883036 5234.506679,9536.382572 5220.699868,9536.036730"/>
    <poly id="113069028" type="building.apartments" color="255,230,230" fill="1" layer="-1.00" shape="5219.286198,9529.385253 5220.784537,9499.621024 5251.820991,9501.180591 5251.177787,9513.938273 5233.545195,9513.047079 5232.683101,9530.064741 5219.286198,9529.385253"/>
    <poly id="113069033" type="building.apartments" color="255,230,230" fill="1" layer="-1.00" shape="5218.994783,9590.415477 5232.596486,9590.872526 5233.711720,9568.883036 5219.508763,9568.537167 5218.994783,9590.415477"/>
    <poly id="117620410" type="building.yes" color="255,230,230" fill="1" layer="-1.00" shape="4722.583425,10387.334624 4719.325504,10395.832465 4702.617904,10389.448514 4705.882632,10380.961785 4722.583425,10387.334624"/>
    <poly id="118132605" type="amenity.school" color="237,199,199" fill="1" layer="-1.00" shape="5586.541667,10196.009504 5608.403334,10130.177468 5621.702404,10134.228175 5624.271795,10127.877507 5630.631202,10128.723824 5630.316845,10129.602469 5629.331563,10140.068784 5651.469785,10143.631561 5648.318837,10155.665826 5674.315622,10163.889740 5669.347101,10179.182646 5670.644892,10179.549909 5669.920441,10181.896681 5664.494132,10198.157192 5607.487433,10178.850302 5605.293803,10185.078686 5603.135392,10184.288647 5601.044320,10189.927545 5606.754555,10191.908251 5603.583583,10201.762491 5586.541667,10196.009504"/>
    <poly id="118132605#1" type="landuse.school" color="194,194,130" fill="1" layer="-3.00" shape="5586.541667,10196.009504 5608.403334,10130.177468 5621.702404,10134.228175 5624.271795,10127.877507 5630.631202,10128.723824 5630.316845,10129.602469 5629.331563,10140.068784 5651.469785,10143.631561 5648.318837,10155.665826 5674.315622,10163.889740 5669.347101,10179.182646 5670.644892,10179.549909 5669.920441,10181.896681 5664.494132,10198.157192 5607.487433,10178.850302 5605.293803,10185.078686 5603.135392,10184.288647 5601.044320,10189.927545 5606.754555,10191.908251 5603.583583,10201.762491 5586.541667,10196.009504"/>
    <poly id="118132612" type="leisure.pitch" color="207,245,201" fill="1" layer="-2.00" shape="5619.701035,10177.995724 5631.790210,10143.005564 5648.859478,10149.392705 5637.487558,10183.582102 5619.701035,10177.995724"/>
    <poly id="118252383" type="amenity.place_of_worship" color="237,199,199" fill="1" layer="-1.00" shape="5382.990339,10462.005513 5388.155568,10448.636565 5398.489605,10452.274816 5393.221865,10465.932933 5382.990339,10462.005513"/>
    <poly id="118252383#1" type="building.chapel" color="255,230,230" fill="1" layer="-1.00" shape="5382.990339,10462.005513 5388.155568,10448.636565 5398.489605,10452.274816 5393.221865,10465.932933 5382.990339,10462.005513"/>
    <poly id="118252383#2" type="historic.church" color="128,255,128" fill="1" layer="-1.00" shape="5382.990339,10462.005513 5388.155568,10448.636565 5398.489605,10452.274816 5393.221865,10465.932933 5382.990339,10462.005513"/>
    <poly id="118252399" type="leisure.park" color="207,245,201" fill="1" layer="-2.00" shape="5298.052820,10477.480005 5231.246491,10455.195683 5238.789075,10431.938668 5274.880203,10443.409114 5285.326779,10410.698111 5316.930434,10421.156308 5298.052820,10477.480005"/>
    <poly id="118254288" type="amenity.parking" color="184,184,179" fill="1" layer="-1.00" shape="5176.336478,10248.932248 5203.262444,10258.377248 5188.211564,10301.054054 5178.676219,10297.749976 5165.349948,10292.977481 5161.292632,10291.598012 5176.336478,10248.932248"/>
    <poly id="118254296" type="building.hotel" color="255,230,230" fill="1" layer="-1.00" shape="5128.542893,10357.364688 5171.847601,10372.994679 5167.318178,10385.385093 5166.976588,10386.397238 5123.678809,10370.834026 5128.542893,10357.364688"/>
    <poly id="118254296#1" type="tourism.hotel" color="207,245,201" fill="1" layer="-2.00" shape="5128.542893,10357.364688 5171.847601,10372.994679 5167.318178,10385.385093 5166.976588,10386.397238 5123.678809,10370.834026 5128.542893,10357.364688"/>
    <poly id="118254306" type="landuse.religious" color="194,194,130" fill="1" layer="-3.00" shape="5388.155568,10448.636565 5398.489605,10452.274816 5402.819924,10453.799104 5454.810872,10472.057502 5438.419286,10518.470631 5436.971316,10517.958816 5424.201269,10554.128401 5370.462576,10535.247268 5356.870747,10530.474227 5347.551575,10556.856372 5334.676939,10552.328163 5329.670509,10550.570292 5326.603813,10549.491096 5306.803442,10542.537553 5295.677234,10538.632477 5310.332053,10497.101586 5316.105228,10480.762853 5334.142383,10429.666818 5388.155568,10448.636565"/>
    <poly id="118254723" type="building.residential" color="255,230,230" fill="1" layer="-1.00" shape="5272.299715,10345.529024 5283.317063,10349.700982 5273.437824,10376.250051 5294.680066,10384.115649 5308.094736,10389.188815 5309.228870,10386.252523 5311.825087,10379.512398 5317.719622,10381.715242 5315.109733,10388.499853 5313.989260,10391.402777 5316.386684,10392.303940 5312.383027,10402.925759 5258.314516,10382.655479 5258.758595,10381.476508 5261.532425,10373.701959 5272.299715,10345.529024"/>
    <poly id="118254724" type="building.residential" color="255,230,230" fill="1" layer="-1.00" shape="5306.779890,10351.449332 5339.763467,10363.754170 5331.147942,10386.721735 5317.719622,10381.715242 5311.825087,10379.512398 5298.273783,10374.450332 5304.559402,10357.566622 5306.779890,10351.449332"/>
    <poly id="118254726" type="building.office" color="255,230,230" fill="1" layer="-1.00" shape="5149.687410,10290.896577 5151.395342,10286.369736 5154.749121,10287.526700 5153.013859,10292.142520 5149.687410,10290.896577"/>
    <poly id="118254728" type="building.office" color="255,230,230" fill="1" layer="-1.00" shape="5160.489637,10242.613546 5164.205455,10244.037483 5167.436310,10245.161080 5174.895284,10247.619675 5160.281829,10289.451266 5154.749121,10287.526700 5151.395342,10286.369736 5145.883119,10284.445180 5160.489637,10242.613546"/>
    <poly id="118254729" type="building.yes" color="255,230,230" fill="1" layer="-1.00" shape="5164.205455,10244.037483 5164.970631,10241.846357 5167.122694,10235.684511 5169.671016,10228.399297 5170.074102,10227.253684 5173.304966,10228.377284 5172.826727,10229.745347 5170.326224,10236.908212 5168.276639,10242.758627 5167.436310,10245.161080 5164.205455,10244.037483"/>
    <poly id="118254730" type="building.office" color="255,230,230" fill="1" layer="-1.00" shape="5292.857631,10291.997189 5308.226046,10297.815750 5292.921863,10338.078588 5277.553554,10332.271198 5288.566998,10303.297486 5292.857631,10291.997189"/>
    <poly id="118254731" type="amenity.parking" color="184,184,179" fill="1" layer="-1.00" shape="5298.273783,10374.450332 5294.680066,10384.115649 5273.437824,10376.250051 5283.317063,10349.700982 5291.520302,10352.738198 5304.559402,10357.566622 5298.273783,10374.450332"/>
    <poly id="118254732" type="building.residential" color="255,230,230" fill="1" layer="-1.00" shape="5323.137861,10364.397688 5321.156506,10369.680789 5322.037615,10370.003431 5319.967443,10375.531224 5315.029143,10373.684393 5315.609882,10372.138390 5312.044467,10370.803334 5311.327084,10372.727497 5305.589632,10370.580288 5307.796433,10364.696575 5309.497179,10365.341848 5310.597165,10362.416676 5309.456503,10361.993908 5310.850276,10358.279050 5312.755934,10358.991080 5312.250349,10360.336881 5323.137861,10364.397688"/>
    <poly id="118254733" type="building.school" color="255,230,230" fill="1" layer="-1.00" shape="5193.010268,10348.381516 5194.608591,10348.804288 5246.656034,10367.305200 5260.248404,10372.244778 5259.934127,10373.134569 5261.532425,10373.701959 5258.758595,10381.476508 5257.139808,10380.909118 5256.682060,10382.188192 5189.464533,10358.324980 5193.010268,10348.381516"/>
    <poly id="118254738" type="building.garage" color="255,230,230" fill="1" layer="-1.00" shape="5304.559402,10357.566622 5291.520302,10352.738198 5293.822744,10346.609788 5306.779890,10351.449332 5304.559402,10357.566622"/>
    <poly id="118254740" type="building.office" color="255,230,230" fill="1" layer="-1.00" shape="5165.349948,10292.977481 5178.676219,10297.749976 5167.834099,10327.858459 5154.507899,10323.085992 5161.510468,10303.632799 5162.753857,10300.173713 5165.349948,10292.977481"/>
    <poly id="118254741" type="building.hall" color="255,230,230" fill="1" layer="-1.00" shape="5246.656034,10367.305200 5194.608591,10348.804288 5197.191024,10341.875017 5198.502522,10341.474690 5200.688669,10336.269413 5227.163278,10345.959213 5229.240095,10341.677126 5253.105474,10349.765198 5246.656034,10367.305200"/>
    <poly id="118254743" type="building.office" color="255,230,230" fill="1" layer="-1.00" shape="5328.266202,10307.538874 5343.641359,10313.346422 5328.330104,10353.620274 5312.961885,10347.801650 5323.975502,10318.828017 5328.266202,10307.538874"/>
    <poly id="118254744" type="building.school" color="255,230,230" fill="1" layer="-1.00" shape="5224.594069,10266.676336 5254.914552,10277.812524 5292.857631,10291.997189 5288.566998,10303.297486 5250.705976,10288.923774 5220.440207,10277.654143 5224.594069,10266.676336"/>
    <poly id="118254745" type="building.school" color="255,230,230" fill="1" layer="-1.00" shape="5224.594069,10266.676336 5220.440207,10277.654143 5213.609717,10275.262261 5211.341499,10281.335097 5214.510839,10282.503211 5213.144444,10286.162484 5216.252306,10287.319472 5214.557976,10291.846292 5211.846283,10290.833929 5196.303702,10332.398405 5198.339165,10333.143768 5196.405753,10338.315695 5193.741895,10337.314468 5192.771776,10339.905993 5189.636619,10338.749019 5186.862906,10346.178803 5193.010268,10348.381516 5189.464533,10358.324980 5171.336672,10351.694653 5180.525391,10327.125178 5179.227609,10326.646816 5195.323450,10283.591881 5198.069303,10284.615360 5199.674804,10280.333228 5198.677554,10279.966109 5206.158544,10259.968000 5224.594069,10266.676336"/>
    <poly id="118254746" type="building.yes" color="255,230,230" fill="1" layer="-1.00" shape="5205.369407,10214.409325 5213.128938,10217.190557 5221.776434,10220.283303 5213.530069,10243.206604 5197.123108,10237.332653 5205.369407,10214.409325"/>
    <poly id="118254988" type="amenity.parking" color="184,184,179" fill="1" layer="-1.00" shape="5412.661269,10404.604442 5397.102083,10398.518591 5404.966336,10377.341813 5389.646112,10371.367239 5383.430570,10369.075293 5376.620747,10366.961256 5381.048281,10354.315200 5384.724204,10344.182802 5428.779628,10359.392457 5415.353313,10397.252633 5412.661269,10404.604442"/>
    <poly id="118254989" type="building.residential" color="255,230,230" fill="1" layer="-1.00" shape="5492.774454,10364.071824 5544.916263,10382.486902 5540.194529,10395.822379 5536.224437,10407.244857 5529.025450,10404.719017 5533.050126,10393.630221 5518.788712,10388.578578 5514.996233,10400.179060 5508.548512,10398.164994 5512.218012,10386.686840 5487.718072,10377.996811 5492.774454,10364.071824"/>
    <poly id="118254990" type="building.residential" color="255,230,230" fill="1" layer="-1.00" shape="5455.891060,10351.342829 5474.455710,10357.874148 5469.494989,10371.899270 5457.104931,10367.537645 5449.807439,10388.158272 5456.828904,10390.628362 5458.694274,10385.367546 5464.069656,10387.259066 5460.038264,10398.637107 5455.134179,10396.890244 5453.432807,10401.672805 5445.960572,10398.957965 5439.963678,10396.576993 5444.739829,10382.874377 5455.891060,10351.342829"/>
    <poly id="118254991" type="building.residential" color="255,230,230" fill="1" layer="-1.00" shape="5444.739829,10382.874377 5439.963678,10396.576993 5436.465337,10406.164359 5430.844095,10404.028142 5439.569342,10381.049640 5444.739829,10382.874377"/>
    <poly id="118254992" type="building.residential" color="255,230,230" fill="1" layer="-1.00" shape="5481.616237,10395.202872 5486.923302,10397.038793 5486.260490,10399.029675 5501.607947,10404.136980 5502.448424,10401.634479 5510.590013,10404.338370 5510.227855,10405.417225 5513.991287,10406.663468 5514.394446,10405.462269 5521.955456,10407.977014 5521.695796,10408.733324 5528.908458,10411.136806 5529.243290,10410.124685 5535.124065,10412.083086 5529.787285,10428.054572 5527.416152,10435.161664 5521.077781,10433.058614 5523.688068,10425.239699 5505.533498,10419.208770 5504.925346,10421.043938 5506.974396,10421.722693 5504.630628,10428.729694 5492.145104,10424.468073 5494.557268,10416.637994 5481.730182,10412.376355 5479.441128,10419.071939 5473.826743,10416.991287 5476.184141,10409.928659 5481.616237,10395.202872"/>
    <poly id="118254993" type="building.residential" color="255,230,230" fill="1" layer="-1.00" shape="5467.748876,10406.868862 5453.432807,10401.672805 5455.134179,10396.890244 5460.038264,10398.637107 5469.484423,10401.997329 5467.748876,10406.868862"/>
    <poly id="118254994" type="building.residential" color="255,230,230" fill="1" layer="-1.00" shape="5352.846785,10403.597024 5362.818944,10407.068323 5358.446237,10418.846829 5339.301077,10412.260274 5343.421043,10400.214781 5352.846785,10403.597024"/>
    <poly id="118254995" type="building.service" color="255,230,230" fill="1" layer="-1.00" shape="5449.810727,10417.655707 5453.902005,10419.091030 5452.658433,10422.627902 5448.567157,10421.192580 5449.810727,10417.655707"/>
    <poly id="118254996" type="building.residential" color="255,230,230" fill="1" layer="-1.00" shape="5385.242831,10412.620907 5406.812591,10420.576003 5401.551567,10434.756879 5379.981860,10426.801805 5385.242831,10412.620907"/>
    <poly id="118254998" type="building.residential" color="255,230,230" fill="1" layer="-1.00" shape="5479.441128,10419.071939 5469.772793,10445.031142 5468.850727,10444.686224 5468.659411,10445.197845 5483.166566,10450.583057 5478.957482,10462.828633 5459.382394,10455.774404 5473.826743,10416.991287 5479.441128,10419.071939"/>
    <poly id="118254999" type="building.residential" color="255,230,230" fill="1" layer="-1.00" shape="5375.477572,10390.519040 5383.430570,10369.075293 5389.646112,10371.367239 5386.954101,10378.630080 5392.158752,10380.554871 5386.904558,10394.735763 5375.477572,10390.519040"/>
    <poly id="118255000" type="building.residential" color="255,230,230" fill="1" layer="-1.00" shape="5392.581171,10327.510704 5434.512353,10343.220701 5429.640559,10356.967806 5387.634328,10341.391313 5388.884682,10338.065757 5392.581171,10327.510704"/>
    <poly id="118255001" type="building.residential" color="255,230,230" fill="1" layer="-1.00" shape="5376.342849,10411.385341 5369.649237,10408.915398 5373.844337,10397.615160 5383.625225,10401.219953 5379.669238,10411.897337 5376.575153,10410.751370 5376.342849,10411.385341"/>
    <poly id="118255002" type="building.residential" color="255,230,230" fill="1" layer="-1.00" shape="5369.232375,10345.082109 5368.214319,10347.985031 5366.232870,10353.646286 5374.627320,10356.572433 5376.028005,10352.568404 5381.048281,10354.315200 5376.620747,10366.961256 5372.502076,10365.581607 5357.639353,10360.296789 5362.019038,10347.572852 5363.556374,10343.101680 5369.232375,10345.082109"/>
    <poly id="118255003" type="building.residential" color="255,230,230" fill="1" layer="-1.00" shape="5406.812591,10420.576003 5412.661269,10404.604442 5415.353313,10397.252633 5420.817492,10399.177483 5411.552499,10424.458360 5420.459045,10427.740569 5421.244790,10425.616221 5428.402805,10428.264250 5423.162198,10442.623069 5401.551567,10434.756879 5406.812591,10420.576003"/>
    <poly id="118255004" type="building.residential" color="255,230,230" fill="1" layer="-1.00" shape="5445.874291,10435.129018 5450.081661,10436.664456 5450.566782,10435.340912 5454.248231,10436.676081 5453.291651,10439.300926 5457.922484,10440.992140 5467.208195,10415.544511 5445.836571,10407.778262 5446.321695,10406.443594 5443.589618,10405.453347 5445.960572,10398.957965 5453.432807,10401.672805 5467.748876,10406.868862 5469.244684,10407.414060 5476.184141,10409.928659 5473.826743,10416.991287 5459.382394,10455.774404 5440.804455,10449.031808 5445.874291,10435.129018"/>
    <poly id="118255005" type="building.residential" color="255,230,230" fill="1" layer="-1.00" shape="5474.455710,10357.874148 5492.774454,10364.071824 5487.718072,10377.996811 5481.616237,10395.202872 5476.184141,10409.928659 5469.244684,10407.414060 5481.044906,10375.971629 5469.494989,10371.899270 5474.455710,10357.874148"/>
    <poly id="118255006" type="building.residential" color="255,230,230" fill="1" layer="-1.00" shape="5544.916263,10382.486902 5571.622130,10392.578995 5567.002758,10406.148038 5540.194529,10395.822379 5544.916263,10382.486902"/>
    <poly id="118255007" type="building.residential" color="255,230,230" fill="1" layer="-1.00" shape="5483.166566,10450.583057 5492.145104,10424.468073 5504.630628,10428.729694 5513.639588,10431.811876 5505.651738,10455.046168 5500.303758,10453.221343 5505.298705,10438.684610 5506.869635,10439.229830 5507.587105,10437.149977 5495.183568,10432.910604 5494.534433,10434.790259 5495.593106,10435.146322 5489.812393,10451.963121 5488.460027,10451.506916 5487.995387,10452.852705 5505.316557,10458.783356 5501.298750,10470.461680 5478.957482,10462.828633 5483.166566,10450.583057"/>
    <poly id="118255008" type="building.residential" color="255,230,230" fill="1" layer="-1.00" shape="5357.205865,10391.495953 5352.846785,10403.597024 5343.421043,10400.214781 5347.786933,10388.113702 5357.205865,10391.495953"/>
    <poly id="118255009" type="building.residential" color="255,230,230" fill="1" layer="-1.00" shape="5434.512353,10343.220701 5455.891060,10351.342829 5444.739829,10382.874377 5439.569342,10381.049640 5438.469674,10380.660215 5445.036011,10362.141677 5435.186771,10358.659104 5420.817492,10399.177483 5415.353313,10397.252633 5428.779628,10359.392457 5429.640559,10356.967806 5434.512353,10343.220701"/>
    <poly id="118255010" type="building.residential" color="255,230,230" fill="1" layer="-1.00" shape="5371.577855,10320.200847 5392.581171,10327.510704 5388.884682,10338.065757 5380.695119,10335.217467 5376.370058,10347.574342 5369.232375,10345.082109 5363.556374,10343.101680 5371.577855,10320.200847"/>
    <poly id="118255011" type="building.residential" color="255,230,230" fill="1" layer="-1.00" shape="5362.818944,10407.068323 5369.746996,10388.394003 5375.477572,10390.519040 5386.904558,10394.735763 5391.275904,10396.349027 5385.242831,10412.620907 5379.981860,10426.801805 5358.446237,10418.846829 5362.818944,10407.068323"/>
    <poly id="118255012" type="building.residential" color="255,230,230" fill="1" layer="-1.00" shape="5372.502076,10365.581607 5370.896432,10370.063893 5369.202522,10369.451968 5368.170813,10372.332643 5369.181695,10372.688675 5368.231975,10375.346904 5367.132300,10374.957496 5363.271943,10385.757252 5365.498609,10386.547193 5362.997924,10393.543122 5357.205865,10391.495953 5347.786933,10388.113702 5357.639353,10360.296789 5372.502076,10365.581607"/>
    <poly id="118255013" type="building.residential" color="255,230,230" fill="1" layer="-1.00" shape="5436.465337,10406.164359 5439.963678,10396.576993 5445.960572,10398.957965 5443.589618,10405.453347 5434.023873,10431.657332 5438.511286,10433.292897 5439.269713,10431.201917 5443.094601,10432.592709 5442.602649,10433.938498 5445.874291,10435.129018 5440.804455,10449.031808 5423.162198,10442.623069 5428.402805,10428.264250 5436.465337,10406.164359"/>
    <poly id="118255126" type="building.residential" color="255,230,230" fill="1" layer="-1.00" shape="5525.424524,10464.469744 5533.494690,10439.244529 5526.623595,10436.818840 5527.416152,10435.161664 5529.787285,10428.054572 5535.524649,10429.645905 5534.308365,10433.027043 5537.136048,10433.917249 5536.575717,10435.618947 5539.000415,10436.420117 5538.351300,10438.032821 5543.125576,10439.490557 5543.528786,10437.955679 5554.928236,10441.905840 5553.213084,10446.955310 5555.829013,10447.845497 5555.132016,10449.914223 5559.940405,10451.538821 5555.902016,10462.905661 5548.320657,10460.090548 5549.372918,10457.398998 5550.581844,10457.810708 5550.827875,10456.843067 5535.296185,10451.913547 5534.729028,10453.604121 5536.586825,10454.171635 5532.056457,10467.329184 5530.765578,10466.839608 5530.362419,10468.051929 5537.076413,10470.155042 5537.636662,10469.020603 5541.522992,10470.233516 5541.201807,10471.356865 5550.080960,10473.938573 5549.670943,10475.317732 5545.489163,10486.651193 5521.174235,10477.682955 5525.424524,10464.469744"/>
    <poly id="118255128" type="building.residential" color="255,230,230" fill="1" layer="-1.00" shape="5571.622130,10392.578995 5598.929118,10401.703646 5596.783424,10407.843062 5591.651429,10423.313990 5589.682987,10431.867064 5589.238827,10433.090497 5561.488138,10423.098263 5567.002758,10406.148038 5571.622130,10392.578995"/>
    <poly id="118255130" type="building.residential" color="255,230,230" fill="1" layer="-1.00" shape="5598.929118,10401.703646 5634.568653,10414.244426 5636.316615,10418.293369 5628.416643,10443.585179 5617.973404,10440.369095 5623.454231,10422.228797 5608.298230,10416.976548 5606.140205,10414.317891 5603.811630,10410.235503 5596.783424,10407.843062 5598.929118,10401.703646"/>
    <poly id="118255134" type="building.residential" color="255,230,230" fill="1" layer="-1.00" shape="5573.899440,10420.675298 5569.651104,10419.195362 5571.414091,10414.179273 5573.019172,10414.735641 5574.174001,10411.432363 5572.534769,10410.864867 5573.716932,10407.483734 5577.651090,10408.863523 5577.193258,10410.164813 5581.161565,10411.544610 5581.516896,10410.543618 5587.971367,10412.791357 5587.260699,10414.815586 5586.270331,10414.470635 5585.368326,10417.062094 5587.765698,10417.896652 5585.305692,10424.925843 5580.743178,10423.334625 5581.098509,10422.333632 5574.159108,10419.918991 5573.899440,10420.675298"/>
    <poly id="118255135" type="building.residential" color="255,230,230" fill="1" layer="-1.00" shape="5652.142057,10422.989676 5654.368967,10421.877764 5686.518118,10432.872298 5685.007839,10437.343376 5681.850467,10447.564621 5678.100830,10445.951203 5678.497210,10444.661034 5676.420893,10443.848732 5675.560225,10444.048798 5662.869943,10439.975798 5662.446681,10438.596512 5660.752804,10438.151328 5659.652398,10442.489007 5647.324079,10438.627438 5652.142057,10422.989676"/>
    <poly id="118255137" type="building.residential" color="255,230,230" fill="1" layer="-1.00" shape="5659.652398,10442.489007 5654.540608,10458.738464 5655.524139,10459.038936 5654.499053,10462.286603 5653.119380,10461.852595 5648.424492,10476.811891 5645.848123,10485.031165 5634.189257,10481.292084 5636.663125,10473.250752 5647.324079,10438.627438 5659.652398,10442.489007"/>
    <poly id="118255141" type="building.residential" color="255,230,230" fill="1" layer="-1.00" shape="5554.928236,10441.905840 5561.488138,10423.098263 5589.238827,10433.090497 5589.682987,10431.867064 5595.823263,10433.870067 5594.025907,10440.220868 5596.962858,10441.144492 5598.295456,10436.728975 5609.763181,10440.601414 5609.182334,10442.303100 5614.113654,10443.972261 5612.808452,10447.820520 5608.853837,10446.485191 5607.692143,10449.910810 5595.070153,10445.648908 5595.514327,10444.336494 5593.130626,10443.535303 5588.477069,10457.248918 5589.371807,10457.560486 5586.932308,10464.600803 5580.088545,10462.530971 5582.562288,10454.801048 5576.408371,10452.809182 5581.848074,10434.501991 5579.833191,10433.823210 5579.190854,10435.702855 5573.071075,10433.633139 5572.374070,10435.701862 5569.437121,10434.711516 5570.257122,10432.309129 5566.780592,10431.129620 5563.452757,10440.950499 5566.669739,10442.029863 5563.089079,10452.595928 5559.940405,10451.538821 5555.132016,10449.914223 5555.829013,10447.845497 5553.213084,10446.955310 5554.928236,10441.905840"/>
    <poly id="118255142" type="building.service" color="255,230,230" fill="1" layer="-1.00" shape="5678.100830,10445.951203 5681.850467,10447.564621 5681.440415,10448.921524 5678.146694,10457.674551 5681.595865,10458.809643 5670.497747,10492.365031 5664.179996,10490.295170 5674.833879,10458.063297 5673.775223,10457.707195 5678.100830,10445.951203"/>
    <poly id="118255143" type="building.residential" color="255,230,230" fill="1" layer="-1.00" shape="5610.975666,10462.435486 5615.431336,10447.820922 5617.973404,10440.369095 5628.416643,10443.585179 5627.951939,10445.086673 5628.491519,10445.242475 5622.026769,10465.651649 5614.588791,10463.481574 5610.975666,10462.435486"/>
    <poly id="118255637" type="building.residential" color="255,230,230" fill="1" layer="-1.00" shape="5361.301532,10216.825314 5356.716903,10228.648288 5339.244548,10221.950678 5343.555848,10210.772778 5350.481968,10213.431794 5349.621071,10215.656250 5352.216656,10216.646431 5353.303028,10213.832494 5361.301532,10216.825314"/>
    <poly id="118255638" type="building.residential" color="255,230,230" fill="1" layer="-1.00" shape="5322.741939,10217.088468 5329.265076,10219.458225 5326.388581,10227.355075 5328.553848,10228.144994 5329.052622,10226.776948 5346.347417,10233.051842 5344.304477,10238.646363 5343.361873,10238.301466 5315.848671,10228.321758 5319.162426,10219.245937 5321.628241,10220.135985 5322.741939,10217.088468"/>
    <poly id="118255639" type="building.residential" color="255,230,230" fill="1" layer="-1.00" shape="5381.344104,10141.637891 5411.378199,10151.929679 5410.626563,10154.109645 5402.727558,10177.266245 5392.365629,10173.605739 5394.483849,10167.455111 5393.657350,10167.176954 5395.058112,10163.106195 5396.335426,10163.551242 5398.699644,10156.688790 5390.905955,10154.018491 5389.867343,10157.032632 5377.503989,10152.793561 5381.344104,10141.637891"/>
    <poly id="118255641" type="building.residential" color="255,230,230" fill="1" layer="-1.00" shape="5312.953976,10211.715284 5320.856889,10214.585681 5319.162426,10219.245937 5315.848671,10228.321758 5313.833092,10233.860681 5306.702053,10231.268434 5311.402781,10218.377644 5310.624102,10218.099505 5312.953976,10211.715284"/>
    <poly id="118255643" type="building.residential" color="255,230,230" fill="1" layer="-1.00" shape="5213.367989,10123.114703 5241.948596,10120.302808 5243.101926,10134.195161 5239.099011,10134.595266 5238.695903,10135.718629 5234.754605,10134.305741 5234.187521,10135.907368 5231.345962,10134.883862 5230.929192,10136.040592 5228.333535,10135.117211 5227.916765,10136.273941 5225.512367,10135.417312 5225.061436,10136.685267 5222.499932,10135.773014 5221.980680,10137.207805 5219.774372,10136.417930 5219.350772,10137.596906 5217.158125,10136.807033 5209.453112,10134.081412 5212.602778,10125.227963 5213.367989,10123.114703"/>
    <poly id="118255644" type="building.residential" color="255,230,230" fill="1" layer="-1.00" shape="5241.581723,10182.267389 5240.966816,10184.013606 5237.174908,10194.613254 5224.265079,10190.040841 5221.231580,10198.571734 5219.913275,10198.115605 5206.518465,10193.376363 5213.945036,10172.488448 5214.935478,10172.833324 5227.954651,10177.439088 5241.581723,10182.267389"/>
    <poly id="118255645" type="building.residential" color="255,230,230" fill="1" layer="-1.00" shape="5283.009198,10118.215117 5284.969658,10118.248655 5287.756653,10118.315634 5284.845571,10131.284458 5284.032764,10130.528043 5283.009198,10118.215117"/>
    <poly id="118255646" type="building.residential" color="255,230,230" fill="1" layer="-1.00" shape="5383.451762,10170.457053 5392.365629,10173.605739 5402.727558,10177.266245 5396.810261,10193.927413 5377.391080,10187.073738 5379.543420,10181.012089 5382.685468,10182.124693 5382.357490,10183.058966 5385.233145,10184.082562 5384.939332,10184.916734 5387.138764,10185.684437 5387.931374,10183.471103 5387.070726,10183.170697 5388.136652,10180.178803 5389.161233,10180.534840 5390.001676,10178.176916 5388.034480,10177.487096 5387.692835,10178.454735 5384.359531,10177.275371 5384.072552,10178.076175 5381.121757,10177.030326 5383.451762,10170.457053"/>